128

Li      0.000000114725473      0.000000446383472     -0.000001174704859
Li      0.000000016417403      0.000000296833563      3.437232088878289
Li      0.000000091168114      0.000000529582360      6.874463495366034
Li      0.000000206669218      0.000000557906645     10.311692923543548
Li     -0.000000030231965      3.437232854146988     -0.000001265150673
Li     -0.000000027024471      3.437232959558871      3.437232206856563
Li     -0.000000053150468      3.437232832665013      6.874463696233779
Li      0.000000025314729      3.437232982593923     10.311692731812661
Li     -0.000000138909330      6.874461953956885     -0.000001152842462
Li     -0.000000091976088      6.874462150417150      3.437232064667286
Li     -0.000000065465107      6.874461988093066      6.874463541589719
Li     -0.000000094941792      6.874461904918030     10.311692873496449
Li     -0.000000055197289     10.311692081979505     -0.000001032584230
Li     -0.000000080465477     10.311691955978908      3.437232193716389
Li      0.000000026251449     10.311691991563432      6.874463383452327
Li      0.000000026163086     10.311691893301314     10.311692781946638
Li      3.437231417317212      0.000000572455435     -0.000001269483405
Li      3.437231300737145      0.000000454847380      3.437232020128389
Li      3.437231113273988      0.000000520733817      6.874463746373730
Li      3.437231495479439      0.000000616042595     10.311692852887342
Li      3.437231509916023      3.437232712378409     -0.000001217459110
Li      3.437231312559825      3.437232747505519      3.437231877805332
Li      3.437230776426822      3.437232343630785      6.874463694528536
Li      3.437231185870937      3.437232474083638     10.311692998843025
Li      3.437230991449446      6.874461818072785     -0.000001031176773
Li      3.437230767227780      6.874461984289711      3.437231763731441
Li      3.437230291946137      6.874462047584640      6.874463443077270
Li      3.437230574737126      6.874461880896845     10.311693168148905
Li      3.437231297017787     10.311692235905031     -0.000001124111655
Li      3.437231014836185     10.311692133526355      3.437232035374405
Li      3.437230745586295     10.311692433689284      6.874463551203990
Li      3.437231130711075     10.311692362629072     10.311692879663184
Li      6.874462330271919      0.000000663490716     -0.000001303838278
Li      6.874462396330898      0.000000599414897      3.437231744136499
Li      6.874462400035131      0.000000633583820      6.874463815209328
Li      6.874462303393597      0.000000680313912     10.311693113411206
Li      6.874462434836492      3.437232454534390     -0.000001188253425
Li      6.874462469823991      3.437232490410703      3.437231508779665
Li      6.874462571272841      3.437231997170338      6.874463666042907
Li      6.874462470939005      3.437232051452559     10.311693376805968
Li      6.874462574898173      6.874461758441968     -0.000000994552412
Li      6.874462506451048      6.874461810988970      3.437231365714705
Li      6.874462495016272      6.874461861666024      6.874463391858304
Li      6.874462555872910      6.874461851156236     10.311693600896778
Li      6.874462495738857     10.311692438204549     -0.000001179681544
Li      6.874462464581986     10.311692453465508      3.437231618301992
Li      6.874462369613493     10.311692856436137      6.874463608855834
Li      6.874462438602292     10.311692757513837     10.311693315495848
Li     10.311693519391588      0.000000520683524     -0.000001164051119
Li     10.311693633821408      0.000000395593682      3.437232101128765
Li     10.311693760422392      0.000000602572204      6.874463565748496
Li     10.311693393959350      0.000000605680301     10.311692856438228
Li     10.311693453850062      3.437232922040084     -0.000001227762854
Li     10.311693635399809      3.437232891507095      3.437231998870075
Li     10.311694065140680      3.437232536699764      6.874463635574505
Li     10.311693684642009      3.437232756625556     10.311692963726323
Li     10.311693946384480      6.874461889013080     -0.000001081000412
Li     10.311694192815308      6.874462004597156      3.437231710823174
Li     10.311694644428812      6.874461852312220      6.874463463468098
Li     10.311694334210239      6.874461872913192     10.311693262313556
Li     10.311693640394953     10.311691976146349     -0.000001081343755
Li     10.311693982483744     10.311692069394143      3.437231943566646
Li     10.311694241858811     10.311692372019952      6.874463456658535
Li     10.311693765309055     10.311692117468189     10.311693019155967
Li      1.718615629257263      1.718616803380234      1.718615122234596
Li      1.718615492473331      1.718616887347037      5.155848600401509
Li      1.718615619626177      1.718617018840351      8.593078085392756
Li      1.718615674100359      1.718616860715780     12.030308017951214
Li      1.718615527879919      5.155847968802335      1.718615255047527
Li      1.718615167050242      5.155847775896490      5.155848293419206
Li      1.718615058529840      5.155847569859201      8.593078290804824
Li      1.718615394890427      5.155847783967524     12.030307956337140
Li      1.718615357942495      8.593076349657503      1.718615454647175
Li      1.718615122907887      8.593076588207479      5.155848215238870
Li      1.718615116524838      8.593076559544018      8.593078174780867
Li      1.718615324647246      8.593076336550723     12.030307977271677
Li      1.718615441396739     12.030308680338107      1.718615263031708
Li      1.718615430500060     12.030308527502207      5.155848417731485
Li      1.718615655981234     12.030308631450504      8.593078046083662
Li      1.718615592703817     12.030308805625500     12.030308087427123
Li      5.155847208044523      1.718617003914343      1.718615013339297
Li      5.155846820316015      1.718616767756410      5.155848210183968
Li      5.155846844992966      1.718616650365808      8.593078564624166
Li      5.155847211973247      1.718616927009770     12.030308035168154
Li      5.155846908366131      5.155847363062386      1.718615068803165
Li      5.155846512009317      5.155847262583406      5.155847734239297
Li      5.155846429538718      5.155846974948108      8.593078654054649
Li      5.155846823881025      5.155847136279236     12.030308350237926
Li      5.155846778108135      8.593076619234166      1.718615173260457
Li      5.155846304059764      8.593076926347816      5.155847814975037
Li      5.155846311730451      8.593077123692185      8.593078555921183
Li      5.155846787992687      8.593076833009491     12.030308262292255
Li      5.155847094328307     12.030308775714257      1.718615114052368
Li      5.155846693898238     12.030308838326844      5.155848232441000
Li      5.155846756990782     12.030309032511822      8.593078469083391
Li      5.155847136450148     12.030308923137007     12.030307996465663
Li      8.593077631801137      1.718617063289331      1.718615056643969
Li      8.593078081304187      1.718616883239819      5.155848283745525
Li      8.593077934203340      1.718616855712821      8.593078426335486
Li      8.593077549667795      1.718617050581903     12.030308048149349
Li      8.593078091109456      5.155847467486558      1.718615041003807
Li      8.593078532068809      5.155847209419918      5.155847812821109
Li      8.593078628242328      5.155846960456763      8.593078601946205
Li      8.593078205301007      5.155847266349632     12.030308358648957
Li      8.593078287920159      8.593076594259017      1.718615105260916
Li      8.593078615644103      8.593076847240688      5.155847741464296
Li      8.593078605528250      8.593076992618679      8.593078651134212
Li      8.593078273260462      8.593076749436582     12.030308322338273
Li      8.593077793670956     12.030308610819301      1.718615156253235
Li      8.593078202135434     12.030308843054041      5.155848171511271
Li      8.593077977361947     12.030308969828505      8.593078443985684
Li      8.593077646788881     12.030308730574777     12.030308053020704
Li     12.030309379507143      1.718616894491927      1.718615144610486
Li     12.030309406841781      1.718616997698273      5.155848576492829
Li     12.030309400314577      1.718617195599535      8.593077970801964
Li     12.030309408634178      1.718617016410889     12.030308098054270
Li     12.030309313867292      5.155848046692137      1.718615223360665
Li     12.030309614374293      5.155847763949364      5.155848346659525
Li     12.030309732261824      5.155847625254138      8.593078230366597
Li     12.030309401142450      5.155847902602313     12.030308000200810
Li     12.030309409628810      8.593076319558802      1.718615427959622
Li     12.030309772561310      8.593076561685260      5.155848121508839
Li     12.030309792613350      8.593076435297077      8.593078243169181
Li     12.030309429671112      8.593076229897509     12.030308046549868
Li     12.030309474476471     12.030308532343380      1.718615347075434
Li     12.030309514237315     12.030308471999685      5.155848322615652
Li     12.030309422080640     12.030308542762574      8.593077970526286
Li     12.030309456776747     12.030308614987614     12.030308163908657
