120

Li      1.399831652300779      1.409531951573418      4.275806843613122
Li      1.375659570764454      4.303554682948772      1.380624057056311
Li      4.227288090077104      1.358195653858978      1.355139565101918
Li      4.742575780950568      4.623442365502254      4.237022076439180
Li      4.493958721845877      4.582392805316310      1.417556334843104
Li      4.430017367315801      1.400639441471573      4.505994774010549
Li      1.294244039339125      4.463566625089146      4.465336787980588
Li      1.447220645111478      1.458295321178937      1.435331470134643
Li      1.540816308698291      1.532952908824765     10.675512531047520
Li      1.451979794373850      4.671140205210149      7.517679713476402
Li      4.671077555479869      1.369779574017504      7.594759274650910
Li      4.507920525027850      4.429731958755476     10.455909478718878
Li      4.464703971634588      4.556115631918508      7.628221276204714
Li      4.484738792637022      1.728396319398208     10.438523791121858
Li      1.720641128259552      4.487906943322603     10.460635802102212
Li      2.552105026264148      2.481833644545953      8.433505262943358
Li      1.449997175811996      7.529888609359114      4.640678581533907
Li      1.497523252172427     10.675630573862383      1.516032651420604
Li      4.672359561149063      7.414902290437676      1.547291958533462
Li      4.487819524559397     10.519524318083667      4.493581669506442
Li      4.466251650682564     10.412392280075123      1.707811434174954
Li      4.571714792135262      7.488969291910760      4.407139513743997
Li      1.706198696262409     10.448412866537531      4.482244585945593
Li      0.506620834043267      6.392531052850545      2.559569417849467
Li      1.510406624123162      7.478638462672099     10.256421651006482
Li      1.520717662539198     10.253787172682724      7.479062102256766
Li      4.323319495431889      7.489372235011539      7.500606910267345
Li      3.481670239673897      9.499246036215359      9.510174405912945
Li      4.505193320499681     10.460793259209385      7.268237231069078
Li      4.495317164818525      7.268413056106229     10.485435911446146
Li      1.277616400618946     10.454991341411462     10.421635946501782
Li      1.433783689381988      7.490789087391524      7.474444350984126
Li      7.580049561110124      1.446675492435874      4.692381673530544
Li      7.486940013346086      4.683919111083145      1.481411574205247
Li     10.696323788644463      1.482419270382969      1.487011106850948
Li     10.523699052822110      4.483166812749057      4.486281147159622
Li     10.439391900050115      4.471666778643197      1.686517630497857
Li     10.481740286363596      1.713053901393927      4.483900918589138
Li      7.533728857553007      4.564474869355852      4.466328297600150
Li      6.386784508871096      0.513321460639442      2.579468500344214
Li      7.470752387841340      1.535699383058545     10.220067336437088
Li      7.548682085367603      4.322590180875318      7.535366186583265
Li     10.271308036226420      1.511467539204622      7.467763960247868
Li      9.472316613918531      3.446202927810716      9.488194844293513
Li     10.500159600125702      4.499685158428018      7.264508328532500
Li     10.478172117537412      1.271152995289603     10.441501756246025
Li      7.282464471369376      4.486781451181232     10.439087492584823
Li      7.470224752932393      1.450142516878781      7.540521495911614
Li      7.430572507567311      7.432268358192771      4.301497876626539
Li      7.454618466557385     10.271982806591783      1.522712279627402
Li     10.282120588464020      7.451698268334643      1.513323605100991
Li     11.484524777856475     11.480550692905583      3.439350685737101
Li     10.438393663503220     10.440033002589114      1.288492406274646
Li     10.448644092709037      7.266650306591078      4.506874412655037
Li      7.266019744406316     10.436911360156419      4.508621840146215
Li      7.451960745091070      7.459500173823396      1.518909324696091
Li      7.481770826379619      7.460376400530791     10.637173549629157
Li      7.460937552206154     10.685618066073202      7.452047578096109
Li     10.685838485072599      7.457236886843611      7.476447215405823
Li     10.523942629317331     10.499693065574137     10.408436786310817
Li     10.500145239876007     10.475416657443020      7.717719112032698
Li     10.472562531425787      7.688000685356769     10.476487527433154
Li      7.697939633903591     10.459886894750975     10.497810219129038
Li      8.564598414292677      8.566463736829888      8.465921264645285
Li      9.566727716283706      5.397200701713453     11.354997764915780
Li      2.419307359411273      6.451981678375884      0.567921104584007
Li      5.406904314005174      9.544578964091233     11.389473704168335
Li      6.402061369542242      2.476133869577526      0.438909819328702
Li      8.476052615819906      6.526463211861101      6.542329010833538
Li      3.038945075125025      5.685952261924848      5.660736020994980
Li      6.536469774800846      8.436152601304549      6.547945760137006
Li      5.702708104027204      3.039520222847294      6.149976774484799
Li      2.545994339926665      0.570420169600469      6.414758466191715
Li      9.453724586076603     11.402399228620537      5.558704153706506
Li      0.596716756038041      2.519540789465566      6.438790565719994
Li     11.430142244093449      9.423587285562094      5.559225348973380
Li      3.384732517814339     11.438917229021950     -0.467060361828724
Li      8.487844170876748      0.553957356193555      0.451845086361826
Li     -0.457855844306979      3.391464982478433     -0.473443613889951
Li      0.520265613211073      8.530434243809434      0.442167338583066
Li      9.549915337480293      9.549494253413902      3.594641565767265
Li      2.836817785107061      3.085037763441624      3.029992949622936
Li      2.423082459751170      8.424798621484534      2.428702107278287
Li      8.522001153075820      2.440186189632008      2.429838518691976
Li      5.562326903227126     -0.433763283020531      9.443142764995256
Li     11.451430712346898      5.537839773450865      9.435150595836424
Li      6.528469494638925      6.452644441630929      8.438560512418670
Li      0.503151150571267      0.500831595735017      8.502199300615246
P       0.012633190303448     11.909929720833832     11.938970476631779
P       0.013445628880353      3.007206096524489      2.968062488275768
P       3.029611210701346      0.043295514517882      2.999944733804275
P       3.058642779536161      3.058598255863639      0.068318491633708
P       0.020163762241544      0.020207549523296      5.960016233793938
P       0.035925646381861      3.033675612267951      8.932113555898153
P       3.019076005282493     -0.003485044845614      8.931494538329144
P       3.061938911391566      3.076107815669053      5.921154382764586
P      -0.027536699673199      5.994369577658727     -0.003870670453890
P      11.917538297615033      8.933108177817616      3.000930815135397
P       2.994784633604878      5.984262250568403      3.004598522728201
P       3.038186554336450      8.878748570815697      0.010785024749730
P       0.065220695710892      5.986308224356347      5.955832288309382
P       0.027089711710785      8.931592373261331      8.949766239382976
P       5.989357561800130     -0.023212343790772      0.036787995845277
P       8.933669041240295      0.008551727755972      2.989979390843426
P       8.912298228319663      3.038499822633024      0.023329748104785
P       5.980553897702697      0.094387715863723      5.927660634075295
P       5.965676822042639      3.041029716462805      8.899564482185646
P       8.961238378325383      0.013713004284635      8.957720608263157
P       5.985434116652862      5.975655487186878      6.002528404053707
P       5.971005255293443      8.908666709606798      8.995353969348391
P       8.960313142827967      5.988007923328124      8.987935769629345
P       8.929858148607611      8.925035593032495      5.943695239500365
S       3.008540772545494      6.008500407638265      8.946384953710526
S       3.048676753032708      8.896020762825284      5.956784253292413
S       6.140228944809726      3.017984193821125      2.945200690157824
S       8.931366941486248      3.061891724656126      5.922487108294908
S       6.015119880335730      5.993743165851438      0.035820688682995
S       6.008593245817068      8.917716107466221      2.969246641982974
S       8.917028297725871      5.987680614424207      2.972181307984050
S       8.889586064034502      8.876853394075773      0.074045754595289
