96

Li      1.427398324000005      1.427398324000005      4.282194972000014
Li      1.427398324000005      1.427398324000005      9.991788268000034
Li      1.427398324000005      7.136991620000024      4.282194972000014
Li      1.427398324000005      7.136991620000024      9.991788268000034
Li      7.136991620000024      1.427398324000005      4.282194972000014
Li      7.136991620000024      1.427398324000005      9.991788268000034
Li      7.136991620000024      7.136991620000024      4.282194972000014
Li      7.136991620000024      7.136991620000024      9.991788268000034
Li      1.427398324000005      4.282194972000014      1.427398324000005
Li      1.427398324000005      4.282194972000014      7.136991620000024
Li      1.427398324000005      9.991788268000034      1.427398324000005
Li      1.427398324000005      9.991788268000034      7.136991620000024
Li      7.136991620000024      4.282194972000014      1.427398324000005
Li      7.136991620000024      4.282194972000014      7.136991620000024
Li      7.136991620000024      9.991788268000034      1.427398324000005
Li      7.136991620000024      9.991788268000034      7.136991620000024
Li      4.282194972000014      1.427398324000005      1.427398324000005
Li      4.282194972000014      1.427398324000005      7.136991620000024
Li      4.282194972000014      7.136991620000024      1.427398324000005
Li      4.282194972000014      7.136991620000024      7.136991620000024
Li      9.991788268000034      1.427398324000005      1.427398324000005
Li      9.991788268000034      1.427398324000005      7.136991620000024
Li      9.991788268000034      7.136991620000024      1.427398324000005
Li      9.991788268000034      7.136991620000024      7.136991620000024
Li      4.282194972000014      4.282194972000014      4.282194972000014
Li      4.282194972000014      4.282194972000014      9.991788268000034
Li      4.282194972000014      9.991788268000034      4.282194972000014
Li      4.282194972000014      9.991788268000034      9.991788268000034
Li      9.991788268000034      4.282194972000014      4.282194972000014
Li      9.991788268000034      4.282194972000014      9.991788268000034
Li      9.991788268000034      9.991788268000034      4.282194972000014
Li      9.991788268000034      9.991788268000034      9.991788268000034
Li      4.282194972000014      4.282194972000014      1.427398324000005
Li      4.282194972000014      4.282194972000014      7.136991620000024
Li      4.282194972000014      9.991788268000034      1.427398324000005
Li      4.282194972000014      9.991788268000034      7.136991620000024
Li      9.991788268000034      4.282194972000014      1.427398324000005
Li      9.991788268000034      4.282194972000014      7.136991620000024
Li      9.991788268000034      9.991788268000034      1.427398324000005
Li      9.991788268000034      9.991788268000034      7.136991620000024
Li      4.282194972000014      1.427398324000005      4.282194972000014
Li      4.282194972000014      1.427398324000005      9.991788268000034
Li      4.282194972000014      7.136991620000024      4.282194972000014
Li      4.282194972000014      7.136991620000024      9.991788268000034
Li      9.991788268000034      1.427398324000005      4.282194972000014
Li      9.991788268000034      1.427398324000005      9.991788268000034
Li      9.991788268000034      7.136991620000024      4.282194972000014
Li      9.991788268000034      7.136991620000024      9.991788268000034
Li      1.427398324000005      4.282194972000014      4.282194972000014
Li      1.427398324000005      4.282194972000014      9.991788268000034
Li      1.427398324000005      9.991788268000034      4.282194972000014
Li      1.427398324000005      9.991788268000034      9.991788268000034
Li      7.136991620000024      4.282194972000014      4.282194972000014
Li      7.136991620000024      4.282194972000014      9.991788268000034
Li      7.136991620000024      9.991788268000034      4.282194972000014
Li      7.136991620000024      9.991788268000034      9.991788268000034
Li      1.427398324000005      1.427398324000005      1.427398324000005
Li      1.427398324000005      1.427398324000005      7.136991620000024
Li      1.427398324000005      7.136991620000024      1.427398324000005
Li      1.427398324000005      7.136991620000024      7.136991620000024
Li      7.136991620000024      1.427398324000005      1.427398324000005
Li      7.136991620000024      1.427398324000005      7.136991620000024
Li      7.136991620000024      7.136991620000024      1.427398324000005
Li      7.136991620000024      7.136991620000024      7.136991620000024
S       0.000000000000000      0.000000000000000      0.000000000000000
S       0.000000000000000      0.000000000000000      5.709593296000020
S       0.000000000000000      5.709593296000020      0.000000000000000
S       0.000000000000000      5.709593296000020      5.709593296000020
S       5.709593296000020      0.000000000000000      0.000000000000000
S       5.709593296000020      0.000000000000000      5.709593296000020
S       5.709593296000020      5.709593296000020      0.000000000000000
S       5.709593296000020      5.709593296000020      5.709593296000020
S       0.000000000000000      2.854796648000010      2.854796648000010
S       0.000000000000000      2.854796648000010      8.564389944000029
S       0.000000000000000      8.564389944000029      2.854796648000010
S       0.000000000000000      8.564389944000029      8.564389944000029
S       5.709593296000020      2.854796648000010      2.854796648000010
S       5.709593296000020      2.854796648000010      8.564389944000029
S       5.709593296000020      8.564389944000029      2.854796648000010
S       5.709593296000020      8.564389944000029      8.564389944000029
S       2.854796648000010      0.000000000000000      2.854796648000010
S       2.854796648000010      0.000000000000000      8.564389944000029
S       2.854796648000010      5.709593296000020      2.854796648000010
S       2.854796648000010      5.709593296000020      8.564389944000029
S       8.564389944000029      0.000000000000000      2.854796648000010
S       8.564389944000029      0.000000000000000      8.564389944000029
S       8.564389944000029      5.709593296000020      2.854796648000010
S       8.564389944000029      5.709593296000020      8.564389944000029
S       2.854796648000010      2.854796648000010      0.000000000000000
S       2.854796648000010      2.854796648000010      5.709593296000020
S       2.854796648000010      8.564389944000029      0.000000000000000
S       2.854796648000010      8.564389944000029      5.709593296000020
S       8.564389944000029      2.854796648000010      0.000000000000000
S       8.564389944000029      2.854796648000010      5.709593296000020
S       8.564389944000029      8.564389944000029      0.000000000000000
S       8.564389944000029      8.564389944000029      5.709593296000020
