144

Li     -0.000000326000021      2.444663601000007      4.413863094999975
Li     -0.000000326000021      2.444663601000007     11.974625976999951
Li     -2.117141900000022      6.111659248000034      4.413863094999975
Li     -2.117141900000022      6.111659248000034     11.974625976999951
Li     -4.234283190999939      9.778654402999965      4.413863094999975
Li     -4.234283190999939      9.778654402999965     11.974625976999951
Li      4.234281563999960      2.444663601000007      4.413863094999975
Li      4.234281563999960      2.444663601000007     11.974625976999951
Li      2.117139988999978      6.111659248000034      4.413863094999975
Li      2.117139988999978      6.111659248000034     11.974625976999951
Li     -0.000001301999941      9.778654402999965      4.413863094999975
Li     -0.000001301999941      9.778654402999965     11.974625976999951
Li      8.468563547999969      2.444663601000007      4.413863094999975
Li      8.468563547999969      2.444663601000007     11.974625976999951
Li      6.351421972999986      6.111659248000034      4.413863094999975
Li      6.351421972999986      6.111659248000034     11.974625976999951
Li      4.234280682000067      9.778654402999965      4.413863094999975
Li      4.234280682000067      9.778654402999965     11.974625976999951
Li      2.117140782000003      1.222331800000011      3.146899787999989
Li      2.117140782000003      1.222331800000011     10.707662669999966
Li     -0.000000651000015      4.889327201000028      3.146899787999989
Li     -0.000000651000015      4.889327201000028     10.707662669999966
Li     -2.117142131000012      8.556322683999971      3.146899787999989
Li     -2.117142131000012      8.556322683999971     10.707662669999966
Li      6.351422954999955      1.222331800000011      3.146899787999989
Li      6.351422954999955      1.222331800000011     10.707662669999966
Li      4.234281522000027      4.889327201000028      3.146899787999989
Li      4.234281522000027      4.889327201000028     10.707662669999966
Li      2.117140042000031      8.556322683999971      3.146899787999989
Li      2.117140042000031      8.556322683999971     10.707662669999966
Li     10.585704560999982      1.222331800000011      3.146899787999989
Li     10.585704560999982      1.222331800000011     10.707662669999966
Li      8.468563127999964      4.889327201000028      3.146899787999989
Li      8.468563127999964      4.889327201000028     10.707662669999966
Li      6.351421646999987      8.556322683999971      3.146899787999989
Li      6.351421646999987      8.556322683999971     10.707662669999966
Li      2.117140782000003      1.222331800000011      0.633481654000042
Li      2.117140782000003      1.222331800000011      8.194244536000017
Li     -0.000000651000015      4.889327201000028      0.633481654000042
Li     -0.000000651000015      4.889327201000028      8.194244536000017
Li     -2.117142131000012      8.556322683999971      0.633481654000042
Li     -2.117142131000012      8.556322683999971      8.194244536000017
Li      6.351422954999955      1.222331800000011      0.633481654000042
Li      6.351422954999955      1.222331800000011      8.194244536000017
Li      4.234281522000027      4.889327201000028      0.633481654000042
Li      4.234281522000027      4.889327201000028      8.194244536000017
Li      2.117140042000031      8.556322683999971      0.633481654000042
Li      2.117140042000031      8.556322683999971      8.194244536000017
Li     10.585704560999982      1.222331800000011      0.633481654000042
Li     10.585704560999982      1.222331800000011      8.194244536000017
Li      8.468563127999964      4.889327201000028      0.633481654000042
Li      8.468563127999964      4.889327201000028      8.194244536000017
Li      6.351421646999987      8.556322683999971      0.633481654000042
Li      6.351421646999987      8.556322683999971      8.194244536000017
Li     -0.000000326000021      2.444663601000007      6.927281229000030
Li     -0.000000326000021      2.444663601000007     14.488044111000006
Li     -2.117141900000022      6.111659248000034      6.927281229000030
Li     -2.117141900000022      6.111659248000034     14.488044111000006
Li     -4.234283190999939      9.778654402999965      6.927281229000030
Li     -4.234283190999939      9.778654402999965     14.488044111000006
Li      4.234281563999960      2.444663601000007      6.927281229000030
Li      4.234281563999960      2.444663601000007     14.488044111000006
Li      2.117139988999978      6.111659248000034      6.927281229000030
Li      2.117139988999978      6.111659248000034     14.488044111000006
Li     -0.000001301999941      9.778654402999965      6.927281229000030
Li     -0.000001301999941      9.778654402999965     14.488044111000006
Li      8.468563547999969      2.444663601000007      6.927281229000030
Li      8.468563547999969      2.444663601000007     14.488044111000006
Li      6.351421972999986      6.111659248000034      6.927281229000030
Li      6.351421972999986      6.111659248000034     14.488044111000006
Li      4.234280682000067      9.778654402999965      6.927281229000030
Li      4.234280682000067      9.778654402999965     14.488044111000006
Li      0.000000000000000      0.000000000000000      1.890190721000016
Li      0.000000000000000      0.000000000000000      9.450953602999991
Li     -2.117141480000043      3.666995483000021      1.890190721000016
Li     -2.117141480000043      3.666995483000021      9.450953602999991
Li      8.468562612399980      7.333990965999964      1.890190721000016
Li      8.468562612399980      7.333990965999964      9.450953602999991
Li      4.234281984000007      0.000000000000000      1.890190721000016
Li      4.234281984000007      0.000000000000000      9.450953602999991
Li      2.117140503999966      3.666995483000021      1.890190721000016
Li      2.117140503999966      3.666995483000021      9.450953602999991
Li     -0.000000977000012      7.333990965999964      1.890190721000016
Li     -0.000000977000012      7.333990965999964      9.450953602999991
Li      8.468563968000014      0.000000000000000      1.890190721000016
Li      8.468563968000014      0.000000000000000      9.450953602999991
Li      6.351422487999973      3.666995483000021      1.890190721000016
Li      6.351422487999973      3.666995483000021      9.450953602999991
Li      4.234281006999995      7.333990965999964      1.890190721000016
Li      4.234281006999995      7.333990965999964      9.450953602999991
Li      0.000000000000000      0.000000000000000      5.670572161999949
Li      0.000000000000000      0.000000000000000     13.231335044000032
Li     -2.117141480000043      3.666995483000021      5.670572161999949
Li     -2.117141480000043      3.666995483000021     13.231335044000032
Li      8.468562612399980      7.333990965999964      5.670572161999949
Li      8.468562612399980      7.333990965999964     13.231335044000032
Li      4.234281984000007      0.000000000000000      5.670572161999949
Li      4.234281984000007      0.000000000000000     13.231335044000032
Li      2.117140503999966      3.666995483000021      5.670572161999949
Li      2.117140503999966      3.666995483000021     13.231335044000032
Li     -0.000000977000012      7.333990965999964      5.670572161999949
Li     -0.000000977000012      7.333990965999964     13.231335044000032
Li      8.468563968000014      0.000000000000000      5.670572161999949
Li      8.468563968000014      0.000000000000000     13.231335044000032
Li      6.351422487999973      3.666995483000021      5.670572161999949
Li      6.351422487999973      3.666995483000021     13.231335044000032
Li      4.234281006999995      7.333990965999964      5.670572161999949
Li      4.234281006999995      7.333990965999964     13.231335044000032
P      -0.000000326000021      2.444663601000007      1.890190721000016
P      -0.000000326000021      2.444663601000007      9.450953602999991
P      -2.117141900000022      6.111659248000034      1.890190721000016
P      -2.117141900000022      6.111659248000034      9.450953602999991
P      -4.234283190999939      9.778654402999965      1.890190721000016
P      -4.234283190999939      9.778654402999965      9.450953602999991
P       4.234281563999960      2.444663601000007      1.890190721000016
P       4.234281563999960      2.444663601000007      9.450953602999991
P       2.117139988999978      6.111659248000034      1.890190721000016
P       2.117139988999978      6.111659248000034      9.450953602999991
P      -0.000001301999941      9.778654402999965      1.890190721000016
P      -0.000001301999941      9.778654402999965      9.450953602999991
P       8.468563547999969      2.444663601000007      1.890190721000016
P       8.468563547999969      2.444663601000007      9.450953602999991
P       6.351421972999986      6.111659248000034      1.890190721000016
P       6.351421972999986      6.111659248000034      9.450953602999991
P       4.234280682000067      9.778654402999965      1.890190721000016
P       4.234280682000067      9.778654402999965      9.450953602999991
P       2.117140782000003      1.222331800000011      5.670572161999949
P       2.117140782000003      1.222331800000011     13.231335044000032
P      -0.000000651000015      4.889327201000028      5.670572161999949
P      -0.000000651000015      4.889327201000028     13.231335044000032
P      -2.117142131000012      8.556322683999971      5.670572161999949
P      -2.117142131000012      8.556322683999971     13.231335044000032
P       6.351422954999955      1.222331800000011      5.670572161999949
P       6.351422954999955      1.222331800000011     13.231335044000032
P       4.234281522000027      4.889327201000028      5.670572161999949
P       4.234281522000027      4.889327201000028     13.231335044000032
P       2.117140042000031      8.556322683999971      5.670572161999949
P       2.117140042000031      8.556322683999971     13.231335044000032
P      10.585704560999982      1.222331800000011      5.670572161999949
P      10.585704560999982      1.222331800000011     13.231335044000032
P       8.468563127999964      4.889327201000028      5.670572161999949
P       8.468563127999964      4.889327201000028     13.231335044000032
P       6.351421646999987      8.556322683999971      5.670572161999949
P       6.351421646999987      8.556322683999971     13.231335044000032
