360

Li      1.561356356120903      1.386244244821623      1.362892861697102
Li     10.284745024222477      1.379856434254892     10.158751334245563
Li      1.535829340951042     10.165050561654239     10.158750296334201
Li     10.329650375625295     10.171438371467209      1.362892861697102
Li      4.351974426715120      4.445410196839440      4.426878871084737
Li     13.075363219550127      4.439022386655977     13.222736815881659
Li      4.326447024259716     13.224216636294290     13.222736815881659
Li     13.120268570138247     13.230605500701126      4.426878871084737
Li      2.570053270496116      2.343129449705706      3.528500671075750
Li     11.293442589067704      2.336741903065312     12.324358633464389
Li      2.544525604340141     11.121935098480252     12.324358633464389
Li     11.338346887530925     11.128323962899863      3.528500671075750
Li      7.144038168476586      4.490080475272034      7.415942967336359
Li     15.867427752280388      4.483693192583526     16.211800384381739
Li      7.118511293088560     13.268886405568855     16.211800384381739
Li     15.912332047416990     13.275274215369050      7.415942967336359
Li      7.155297484639896      1.231443363323673      7.458188440203438
Li     15.878686541105045      1.225056343807740     16.254046385000358
Li      7.129769552306595     10.010249679019260     16.254047440503438
Li     15.923591889522951     10.016637489969261      7.458188440203438
Li      1.451837715106200      4.452327510535984      1.556369250208837
Li     10.175226261555482      4.445939173138630     10.352227335739501
Li      1.426310048747857     13.231133422776944     10.352227335739501
Li     10.220130560511725     13.237521233062612      1.556369250208837
Li      1.430623599826262      4.524968321233316      4.388437519276699
Li     10.154012267927836      4.518580510666585     13.184295991825159
Li      1.405096458016086     13.303774760304899     13.184295991825159
Li     10.198916568433580     13.310162570871629      4.388437519276699
Li      4.852849878350180      6.874856108716298      7.749646546333067
Li     13.576238424412578      6.868468825261253     16.545505018881528
Li      4.827321947703537     15.653662038246582     16.545505018881528
Li     13.621142723775083     15.660049848813314      7.749646546333067
Li      4.202887140464822      4.172269707834078      7.593265549693427
Li     12.926276459378119      4.165882407191913     16.389123494490349
Li      4.177360000186290     12.951075620177241     16.389123494490349
Li     12.971180757790286     12.957464484584078      7.593265549693427
Li      7.186331361730232      7.073213504699334     10.386457195074762
Li     15.980152119298522      7.079601315087207      1.590598968810353
Li      7.231234609653762     15.864795564623316      1.590599109544097
Li     15.954624714553598     15.858406700114275     10.386457195074762
Li      7.167967173198540      4.378943775613792     10.400970151324639
Li     15.961787947720589      4.385331585899460      1.605112065793975
Li      7.212871471952417     13.170526099004189      1.605112188936001
Li     15.936260543829771     13.164137234584576     10.400970151324639
Li      1.343109575332919      7.224307582751728      4.165637566396636
Li     10.066498645273890      7.217919771993363     12.961496302820864
Li      1.317582577411171     16.003114549509899     12.961495247317785
Li     10.111402947417414     16.009502359501727      4.165637566396636
Li      2.515857591942726      6.203268371296725      6.384729986172330
Li     11.239247173052270      6.196880561113263     15.180587930969249
Li      2.490330451664193     14.982074283639889     15.180587930969249
Li     11.284151472026368     14.988463148046726      6.384729986172330
Li      4.376884752487832      1.374738007806754      1.321695802447705
Li     13.100273824744125      1.368349933965243     10.117553887978369
Li      4.351357349759629     10.153544710715241     10.117553887978369
Li     13.145178123138439     10.159931484347926      1.321695802447705
Li      4.273544844053064      7.142630895866464     10.471236504250383
Li     13.067365864978694      7.149019760375505      1.675378418719720
Li      4.318449143097594     15.934213482812703      1.675378541861746
Li     13.041838461378527     15.927825672616464     10.471236504250383
Li      7.458373884646481      1.356370082230848      4.474243885724351
Li     16.181762414452031      1.349982026061932     13.270101830521272
Li      7.432846482055439     10.135176398692971     13.270101830521272
Li     16.226667764013175     10.141564208876435      4.474243885724351
Li      7.141304642874106      7.202926695729733     13.293533735022299
Li     15.935125926363490      7.209313979184778      4.497675262473840
Li      7.186208417282184     15.994508228823092      4.497675262473840
Li     15.909597488279632     15.988120418256360     13.293533735022299
Li      1.465804417971333      1.612025424614466     16.070488611706878
Li     10.259625982181776      1.618413112188470      7.274630139158415
Li      1.510709121527964     10.403607625382628      7.274630139158415
Li     10.234098577904074     10.397219814815896     16.070488611706878
Li      4.409325832745842      4.363889672419094      1.471311024344314
Li     13.132715938808291      4.357501862133426     10.267169109874979
Li      4.383798428583747     13.142695075118755     10.267169109874979
Li     13.177620237764536     13.149083922057409      1.471311024344314
Li      7.269700985002604      7.268707497974447      4.393354685925354
Li     15.993091091628507      7.262319687790984     13.189212630722274
Li      7.244173057050219     16.047513954999687     13.189212630722274
Li     16.037995390040674     16.053901765183149      4.393354685925354
Li      7.366596905820737      4.388194705591392      4.429968944310133
Li     16.089987516491156      4.381807140626846     13.225827944610133
Li      7.341070010783171     13.167000617934557     13.225826889107053
Li     16.134890784741767     13.173388428118018      4.429968944310133
Li      1.490231754368155      7.135967639318723     16.131328512908869
Li     10.284053180689492      7.142355450268724      7.335469512608871
Li      1.535135934366365     15.927549699907036      7.335469512608871
Li     10.258524722975471     15.921161888957037     16.131328512908869
Li      1.408342067003679      4.452034621352805     16.128037120062675
Li     10.202162560124952      4.458421921994970      7.332179175265757
Li      1.453245963081902     13.243617208286267      7.332179175265757
Li     10.176635157669548     13.237228361449819     16.128037120062675
Li      4.421209054483456      7.293484609955311      1.503286892035593
Li     13.144599688774372      7.287097854174080     10.299144590548460
Li      4.395682179111760     16.072291576700707     10.299144590548460
Li     13.189502934567100     16.078679386705311      1.503286892035593
Li      4.419025014594886      7.324434857929382      4.432759113927054
Li     13.142414065380864      7.318046519867695     13.228618114227054
Li      4.393497607913578     16.103241296617696     13.228618114227054
Li     13.187318368580863     16.109629107567695      4.432759113927054
Li      7.195244203854421      1.442512098986399     16.078310769115841
Li     15.989064978103670      1.448900172725705      7.282452824318923
Li      7.240147993976788     10.234093912822722      7.282452824318923
Li     15.963537575086335     10.227706102639258     16.078310769115841
Li      7.413452753701826      7.164990416034002      7.162894741431266
Li     16.136843366143495      7.158602605454496     15.958753231571444
Li      7.387925349644346     15.943797382204494     15.958753231571444
Li     16.181746633785465     15.950185192784001      7.162894741431266
Li      1.525856105988795      1.469444480131153     10.383630311542372
Li     10.319676337885713      1.475832149955909      1.587772085277964
Li      1.570760402880965     10.261025626203244      1.587772489887478
Li     10.294148933450819     10.254637816109211     10.383630311542372
Li      1.586504956699573      7.118767668965814      1.476976736185613
Li     10.309894941761467      7.112379858973986     10.272834417106763
Li      1.560977288897870     15.897574634957449     10.272835472609843
Li     10.354798187503137     15.903961409062831      1.476976736185613
Li      4.267798789331031      1.402631131140506     13.230599874034976
Li     13.061619563153986      1.409018818331242      4.434741929238055
Li      4.312703087878837     10.194213331525399      4.434741929238055
Li     13.036092159826623     10.187824467118562     13.230599874034976
Li      4.404541521391230      1.384939263712336     16.085123197095012
Li     13.198362822552841      1.391326687730497      7.289264724546551
Li      4.449446347277691     10.176521200924652      7.289264724546551
Li     13.172835418275138     10.170133390357922     16.085123197095012
Li      7.323002971987618      4.357735075566906      1.506666243471790
Li     16.046392028073829      4.351347265472872     10.302524065126683
Li      7.297476078315034     13.136541778667029     10.302524065126683
Li     16.091297376134349     13.142928534537688      1.506666243471790
Li      7.257053656412944      1.516601403839730      1.566780292797362
Li     15.980443762029724      1.510213189435102     10.362638378328027
Li      7.231526253394086     10.295407843192377     10.362638378328027
Li     16.025348061431636     10.301795653478045      1.566780292797362
Li      1.449402572452101      4.285900188137135     13.243441441157618
Li     10.243223591942314      4.292288261876442      4.447583496360698
Li      1.494307381538295     13.077482775453866      4.447582968609157
Li     10.217696189777563     13.071094964887134     13.243441441157618
Li      1.439122928743356      1.455791683211498     13.164086274351709
Li     10.232943298749600      1.462179493203327      4.368228593430559
Li      1.484027610896403     10.247373233300342      4.368228593430559
Li     10.207416947821455     10.240985423308514     13.164086274351709
Li      4.342720728390116      4.314255482976870     16.144533929534919
Li     13.136542535864214      4.320643293160333      7.348675984737999
Li      4.387625028314551     13.105837016070231      7.348675456986459
Li     13.111015132827504     13.099449205503499     16.144533929534919
Li      7.315867395140482      7.314699995536428      1.464115237646476
Li     16.039255925622051      7.308311658420137     10.259972936159345
Li      7.290339993671121     16.093506435170138     10.259972936159345
Li     16.084160222466867     16.099893208521760      1.464115237646476
Li      0.602397140950933      2.353068939297024      5.317683906861338
Li      9.325786194651391      2.346681392273361     14.113542397001517
Li      0.576869929873437     11.131876169023361     14.113542397001517
Li      9.370690494646258     11.138262925379493      5.317683906861338
Li      1.554843344529804      7.068059447807848     13.219977044753440
Li     10.348664381317008      7.074447258004087      4.424119082364803
Li      1.599747521904187     15.859640980913982      4.424118554613263
Li     10.323136979372478     15.853254224557846     13.219977044753440
Li      4.385986606369751      1.279532217903838      7.679008990565792
Li     13.109376198657651      1.273144406570569     16.474868518617331
Li      4.360458693460542     10.058338410977191     16.474867480705971
Li     13.154280503118020     10.064726221556697      7.679008990565792
Li      4.333411003209899      7.222326475191771     16.143761142954872
Li     13.127231759651282      7.228714285375234      7.347903198157951
Li      4.378314777248947     16.013909589236921      7.347903198157951
Li     13.101704357195876     16.007520724830083     16.143761142954872
Li      7.187251873407487      1.310406318771223     10.306124773150483
Li     15.981073174229566      1.316794392702163      1.510266564477793
Li      7.232156172993915     10.101987992338270      1.510266423744049
Li     15.955545770000743     10.095600181860966     10.306124773150483
Li      6.992754890994444      1.589797139717412     13.041742736427556
Li     15.786576174299313      1.596185213648352      4.245884527754867
Li      7.037658138539035     10.381378409063293      4.245884527754867
Li     15.761047718592103     10.374990598688196     13.041742736427556
Li      1.435040876042041      4.181003274386965      7.412182333004217
Li     10.158430207975369      4.174615726992809     16.208041333304216
Li      1.409513998761286     12.959809467843588     16.208040295392856
Li     10.203334510032132     12.966197278039827      7.412182333004217
Li      1.627466988585849      1.499632261529912      7.522704553082891
Li     10.350856179800175      1.493244187024069     16.318563553382891
Li      1.601939844662721     10.278438700218226     16.318563553382891
Li     10.395760482709521     10.284826511168227      7.522704553082891
Li      4.414044653940864      4.346605061417509     10.248994631032172
Li     13.207865934912560      4.352992871422113      1.453136932519304
Li      4.458948949146374     13.138186593654899      1.453137337128818
Li     13.182339567540009     13.131799838167510     10.248994631032172
Li      4.428247974530520      1.508373253687011     10.347686068921082
Li     13.222068728703935      1.514760922924089      1.551828651875702
Li      4.473152270947521     10.299954926679154      1.551828511141958
Li     13.196541326927591     10.293566062553383     10.347686068921082
Li      7.349456236396501      4.419129065624919     13.175562636198915
Li     16.143276992837883      4.425516875808381      4.379704691401995
Li      7.394359483756577     13.210711125446695      4.379704691401995
Li     16.117750641415196     13.204323315263231     13.175562636198915
Li      7.227312667801662      4.364076678300851     16.087720455932338
Li     16.021134475055540      4.370464224941246      7.291862493543699
Li      7.272217493622916     13.155658492533219      7.291861965792159
Li     15.995606037870958     13.149269627730339     16.087720455932338
Li      2.450864939378119     16.990224605058788     17.141611958682301
Li     11.244686223519242     16.996612415638296      8.345753468542124
Li      2.476392346059426      8.211418166370473      8.345752958382302
Li     11.199781922943068      8.205030355420472     17.141611958682301
Li      1.531875732595291      4.352849041363199     10.332815561002841
Li     10.325697031305943      4.359236605471778      1.536957739347947
Li      1.576780170379332     13.144431382119574      1.536957880081691
Li     10.300169628762253     13.138042517904370     10.332815561002841
Li      4.385803643752940      7.132428667205968     13.241714479793217
Li     13.179624945340843      7.138816477772699      4.445856007244757
Li      4.430707944258681     15.924010727411014      4.445856007244757
Li     13.154096488577158     15.917621862620907     13.241714479793217
Li      4.378368135229462      4.306914990345327     13.204680817259586
Li     13.172188385784649      4.313302800912058      4.408822344711126
Li      4.423272436025858     13.098497314106213      4.408822344711126
Li     13.146660980344333     13.092108449316109     13.204680817259586
Li      7.005511781954632      7.255889703453295     16.129211490381241
Li     15.799333065444017      7.262276986908340      7.333353017832782
Li      7.050416591622134     16.047472817881712      7.333353017832782
Li     15.773805662619582     16.041085007314983     16.129211490381241
Li      5.008225795966222      0.870906083986310      3.761614419527231
Li     13.731614867099307      0.864518396412306     12.557472892075692
Li      4.982698391320358      9.649712452776333     12.557472892075692
Li     13.776519167391903      9.656100263343065      3.761614419527231
Li      1.478363255888950      7.239586638003822     10.467758463276205
Li     10.272184136007292      7.245974448378919      1.671900254603513
Li      1.523267291542939     16.031168715395989      1.671900518479283
Li     10.246656732514788     16.024780905212523     10.467758463276205
Li      3.158391998602695      0.535078838294150      5.402181695773798
Li     11.881781316992814      0.528691063251467     14.198039640570718
Li      3.132865120985456      9.313884662785368     14.198039640570718
Li     11.926685614668658      9.320272472968830      5.402181695773798
Li      5.424508958547444      2.528115238963732      5.924792742283124
Li     14.147898539947642      2.521727692336114     14.720650687080044
Li      5.398981551304208     11.306921168110749     14.720651742583126
Li     14.192803889663802     11.313310015713734      5.924792742283124
Li      0.536545940414331      6.399041632284400      8.268025658793297
Li      9.259934853756873      6.392653821717669     17.063884131341759
Li      0.511018395708280     15.177848071355982     17.063884131341759
Li      9.304839154262613     15.184235881922714      8.268025658793297
Li      0.387219711217938     17.026702223013377     15.194920536926187
Li      9.181040432695328     17.033090033209618      6.399062574537549
Li      0.412747235782951      8.247895256459618      6.399062574537549
Li      9.136136130076634      8.241507972621305     15.194921574837549
Li     17.274460991848262      2.899787386082450      0.181543891008492
Li      8.480639707143686      2.893399575400738      8.977402521882413
Li     17.248933591162579     11.678594089361431      8.977401466379334
Li      8.525544008644397     11.684981899289381      0.181543873416774
Li      0.578463094657089      0.475527438888935      3.465511501727032
Li      9.301851832003557      0.469139838975244     12.261370238151262
Li      0.552935635879938      9.254333333086807     12.261370238151262
Li      9.346756132732567      9.260721143845172      3.465511501727032
Li     17.451842669270540     17.341756136147882      8.970149720426537
Li      8.728453594856667     17.348142892082421      0.174291810813053
Li     17.477371103937969      8.562948642444109      0.174291810813053
Li      8.683549297186046      8.556561359397884      8.970149720426537
P       0.036054089034715     17.542805113180368     17.587849898462594
P       8.829874970209532     17.549192923747100      8.791991425914132
P       0.061581562509305      8.763997619885414      8.791991425914132
P       8.784970673277954      8.757610337184129     17.587848860551230
P       2.961640112302766     17.529587340020683      2.963897630764015
P      11.685028660953284     17.523199530028855     11.759755311685167
P       2.916735811302479      8.738005789165301     11.759756367188245
P      11.710557095848337      8.744393072811979      2.963897630764015
P       5.735462824037793      0.001587728121597      5.860224716243853
P      14.458852403215854     -0.004799854042845     14.656083206384031
P       5.709935419050221      8.780393850913391     14.656083206384031
P      14.503755668532605      8.786780624839915      5.860224716243853
P       0.075046512168143      2.831398264344241      2.935691421956213
P       8.798436128312110      2.825010454160778     11.731549366753134
P       0.049519232623875     11.610204967354933     11.731549366753134
P       8.843340426995555     11.616592777538397      2.935691421956213
P       2.925219534374591      2.931942349825784      5.897701936355150
P      11.648609131469703      2.925555066370740     14.693560408903609
P       2.899691884565268     11.710748788897366     14.693560408903609
P      11.693512380361424     11.717136599464096      5.897701936355150
P       5.892060891062185      2.861584143682578      8.800674979386717
P      14.685881139715718      2.867971953904368      0.004816981814642
P       5.936965190159293     11.653166203632111      0.004816858672616
P      14.660354770564522     11.646778393320892      8.800674979386717
P       0.025130982131869      5.863069308902434      5.924829966358415
P       8.748518843860388      5.856680971224016     14.720688438906874
P      -0.000397526020837     14.641875747974016     14.720688438906874
P       8.793424195980151     14.648263558540746      5.924829966358415
P       2.877103127532024      5.843025884068386      8.833653909246671
P      11.670924146379427      5.849413694187971      0.037796052408341
P       2.922007425590509     14.634608470835765      0.037796193142085
P      11.645396744857488     14.628220660818386      8.833653909246671
P       0.013805669290899      5.855457861883606      0.023633751873368
P       8.737195392651092      5.849070052083412      8.819491168918749
P      -0.011721784746427     14.634263265068743      8.819491168918749
P       8.782098637968645     14.640652111534695      0.023633734281650
S       5.774081626705834      5.758985602997346     11.824492675601912
S      14.567902908769712      5.765374467212548      3.028634994680762
S       5.818985922985672     14.550567662435853      3.028635258556531
S      14.542376558403495     14.544180906859035     11.824492675601912
S       2.919256071369671      2.864550645094852     17.562959464622132
S      11.713076584392386      2.870938192105740      8.767100992073674
S       2.964160371003453     11.656131914632365      8.767100992073674
S      11.687549179242723     11.649744104065634     17.562959464622132
S       5.875143245814573      2.936599389006228      2.977766782910227
S      14.598532828271246      2.930211842570243     11.773624463831377
S       5.849615844415643     11.715405828652715     11.773624463831377
S      14.643437124173671     11.721792601991559      2.977766782910227
S      -0.021063051598295      2.877490348481281     14.659234094178554
S       8.772756852547904      2.883877896258707      5.863374566127014
S       0.023841147158117     11.669071618785335      5.863374566127014
S       8.747229447398240     11.662683808218603     14.659233038675474
S       3.007217323961445      5.850789097707341      2.970528652947162
S      11.730607168885646      5.844401287715512     11.766386333868313
S       2.981689654997128     14.629595009475601     11.766387389371392
S      11.775510432125150     14.635982820233966      2.970528652947162
S       5.846356252162834      5.836500698057902      5.805485271010106
S      14.569745852902543      5.830112888257708     14.601342688055485
S       5.820828847594478     14.615307137129484     14.601343743558566
S      14.614649096987055     14.621693893472841      5.805485271010106
S       2.820094070542690     17.520957576108245     14.669480495878313
S      11.613915109372412     17.527345386674973      5.873622023329851
S       2.845621212352866      8.742151137036663      5.873622023329851
S      11.569010813092573      8.735763327236468     14.669479440375230
S       6.022513472706923     17.552332063465439      0.009116415285707
S      14.745903055154670     17.545944253524713      8.804974025839984
S       5.977609170845126      8.760749476008176      8.804975081343066
S      14.771430455831428      8.767137286740990      0.009116380102271
S      -0.004048885212689     17.558585640837709     11.633298319932651
S       8.789772013566102     17.564974487865790      2.837440111259960
S       0.021478396821945      8.779780238227476      2.837440111259960
S       8.744867713535527      8.773391900740693     11.633298319932651
S       5.847336400023011      5.774159195075383      0.066360270269173
S      14.570725984301985      5.767771385466824      8.862217423438784
S       5.821808469921970     14.552964597698391      8.862218461350146
S      14.615630278382111     14.559352408060713      0.066360270269173
S      -0.039790993873923      5.801415922692430     11.783521705112257
S       8.754028904224075      5.807803732875893      2.987663760315338
S       0.005113215314402     14.592997472781276      2.987664024191108
S       8.728502553382690     14.586610699442431     11.783521705112257
S       2.914062809465416      5.738048263789280     14.690134791249072
S      11.707884095649058      5.744436074739281      5.894275790949072
S       2.958966849345307     14.529630341947984      5.894275790949072
S      11.682355655471625     14.523242530997983     14.690134791249072
S       5.788140628120116     17.491159183477109     11.795736250630204
S      14.581960876475591     17.497545957199222      2.999878041957515
S       5.813668031631996      8.712352744213891      2.999878041957515
S      14.537057628039666      8.705963879615421     11.795736250630204
S       0.065405044907916     17.563063623825830      5.894080241411777
S       8.788793974605056     17.556674759035722     14.689938713960238
S       0.020500638136289      8.771480509397408     14.689938713960238
S       8.814321379754718      8.777868847075826      5.894080241411777
S       2.815627310725523     17.471030633510910      8.884036659967261
S      11.609448855230143     17.477418443656045      0.088178767945496
S       2.841154712247461      8.692223666880498      0.088178803128932
S      11.564543505434628      8.685835856760912      8.884036659967261
S       5.768648948522656      2.849032974751314     14.686962934126692
S      14.562470759932003      2.855420522145471      5.891103933826692
S       5.813553250850696     11.640614771783783      5.891103933826692
S      14.536942318591956     11.634225924180800     14.686962934126692
S      17.472104935139765      2.757031157379930      8.849614910172052
S       8.748715353255468      2.763418967422861      0.053757158884029
S      17.517009232766732     11.548613480565916      0.053757229250901
S       8.723188459864611     11.542225670574087      8.849614910172052
S       2.894731535935580      2.861078604937502     11.808428921451689
S      11.688552573708828      2.867466415312599      3.012570712779000
S       2.939635835384846     11.652660664950913      3.012570712779000
S      11.663025170196949     11.646272854575816     11.808428921451689
