404

Li     14.120287029862650     10.992343699627858     25.395088865763928
Li      1.430255443282767      0.539262306206854     23.307132371708466
Li     14.075473706081377     10.641733027689801     28.413572672465918
Li      2.117889400313830      0.377488986210742     28.013435768933757
Li     13.529478871855460     10.457914160066371     31.376783265334584
Li      1.993832502757759     -0.267830982650883     31.114964341358210
Li      0.703906362442083      0.502261941386822      0.486913055810733
Li      2.026007682027148      0.029822405866706     33.963391705335134
Li      3.854165094754423      0.998807491106494     25.880259445738034
Li      6.627148547004332      1.499954544954591     24.028443615877855
Li      4.693147588987554      0.395449173951838     29.572560009576563
Li      6.451624170070459      0.325449721485508     27.139406690250699
Li      4.716138945284993      0.350770738459489     32.605794325473582
Li      7.417168114692346      2.216260066132262     28.924117276782816
Li      3.203531414662002      1.836433889232613     35.724896018110741
Li      6.052068876058556      2.232685559356374     34.812872387613382
Li      5.771076209580627      3.378029460546975     26.335637729374969
Li      8.993417464082643      3.740741189263642     23.420280843830607
Li      4.532125217055087      3.169444190002840     28.816798314236035
Li      8.382022118551932      2.669773198062546     26.059730771944142
Li      5.924765159689931      3.007158043254197     31.683345335555359
Li      9.208067526670115      3.129857831996695     30.995265046901054
Li     23.819099438648433      4.416317624018689     35.517034149765145
Li      8.323718346409294      3.300172983516189     33.809015727060270
Li     10.190920556202759      6.818574495882501     23.704703457986529
Li     10.052723267201937      6.804287109019482     27.085626934748788
Li      9.245979644187313      6.872939497017261     29.999035237795688
Li     28.180331083369147      7.621017221949359     33.112949327138814
Li     23.261299205702002      9.105268733199038     23.214326824578812
Li      9.048743119955732     -0.148809523753859     25.680259276924367
Li     23.595018209192936      9.793608085135816     31.352017981292754
Li      7.306202474819662     -0.239036405751316     34.306677381699899
Li     11.298712788925231      1.319166442103179     24.578190784473840
Li     10.752194167740555      2.943089372208280     20.458701529941759
Li     23.040478678113111     10.889606593608532     28.081351826758929
Li     10.585027088471447      1.582778647180892     27.861130659897061
Li      9.874310979239315      0.959685486812904     33.539125163821389
Li     12.101922927219862      3.154311608244263     30.929688333034836
Li      8.764781999217258      3.684329779762468      0.252983052016378
Li     13.131609943950723      4.085623803370677     33.547965797517982
Li     10.994520386405613      4.027897207242989     25.744309633687021
Li     12.458870065962795      4.157339076999391     22.708994341737405
Li      9.622839868171496      4.267740311264902     28.462574817218677
Li     12.652355410558085      6.197700354844851     25.866104417727293
Li     10.479647094767440      5.366015655274695     32.369508590456945
Li     14.173580197767288      5.237427547330279     30.681186725798867
Li     11.271316326840735      5.269472540183743     35.547598898052989
Li     13.564281316232174      6.799899296583163     34.552236966815919
Li     30.428050449792849     10.085911082707897     22.607229096166197
Li     13.544170322016313      8.351046688561627     23.933749388178587
Li     11.891038744492910      5.961512562725051     29.127346186973021
Li     15.182118099557076      8.316953368488306     26.378053693336753
Li     12.442581908035537      7.304171895247910     31.877245484955033
Li     14.138121305295476      7.868580503687352     29.234550311204060
Li     14.270784960368344      6.892281679653895      0.631687317508646
Li     14.475337584009061      9.883470906122152     34.664810396083183
Li     26.320706837122760     10.719740251786392     25.991557684394920
Li     27.648014314780429     10.911890466413670     23.379459462396060
Li     25.850066222295592      9.901306952782477     28.734927215200003
Li     14.128549275957234      1.142876706734486     26.791188066744571
Li     10.567332485236781      0.700695001054484     30.612212297290903
Li     13.440605046775614      0.712916762264030     29.649812995620159
Li      9.355006245168376     -0.572101174881116     36.232666386015758
Li     13.184079795542896      0.956902382824207     32.848836423525420
Li     13.920923038999085      3.495858214031455     25.203067004400989
Li     14.628290539031603      1.833049871754036     22.840789510072405
Li     12.755878705730426      3.420983463467155     28.074412359420101
Li     16.502237767366271      3.603763187949821     26.163543495151231
Li     15.101711747934180      2.765832005756040     31.646490548418292
Li     15.579165200793746      2.995631418931823     28.873510423836869
Li     10.563433172059142      2.393222157322587     36.125637504932804
Li     15.016176242592730      2.695007675435026     35.423923989261340
Li     15.553448588174108      5.897721573471810     24.505887948711297
Li     17.026210285153997      7.982262905583926     22.269633377481611
Li     14.711128313773482      5.514016756158308     27.693902283539266
Li     17.254636425646385      6.628216699047452     26.969180948254589
Li     15.985569638863129      5.553185717592712     32.836784214510828
Li     16.715092430571055      6.296624202464950     29.912941412238471
Li     15.665431301074261      5.670043247709877     36.195500976329626
Li     16.972321662586111      8.155002616138928     34.152913736729197
Li     16.917354281560872      9.888728022550024     24.764413237634628
Li     18.621172266274058     11.096235909238493     22.352195726337087
Li     16.718025154133581      9.046225579980414     28.757498591708451
Li     18.746983900583707      9.598957811442256     27.051642511896109
Li     15.430390629544164      8.387405380757670     31.687472630989358
Li     18.269641800934931      9.045648341859390     31.250030895323437
Li     17.523212471170620     10.135130833450321      0.497560226883801
Li     18.808390283398403     10.827078885700534     35.038355613424685
Li     16.395627481790115     -0.240435716525800     26.363911052736000
Li     17.268472405936503      1.715390624547754     24.236863271146451
Li     16.514816030838357      0.377603412447124     29.279136758154458
Li     18.317493462253271      1.660054912222576     27.324555218769891
Li     15.657012222154178     -0.100170154564275     31.845302206722138
Li     19.086421169187950      1.580673473109118     30.365050023763668
Li     15.722560979077494      0.022296263414719     35.751921883151738
Li     17.812678015799936      1.259262054031151     33.266693932146147
Li     18.196496875535502      4.489807521615624     24.099682283570036
Li     20.459520425614233      4.277766481612354     22.237310694875760
Li     18.135815142368305      4.281894030849877     28.544666909629580
Li     19.708107397792297      5.303440899487092     26.402847339846495
Li     17.641572752391557      3.711140841523910     31.290473099979863
Li     20.427316403774299      4.754207470406643     30.361787148442481
Li     17.754295463575662      3.878819580727822     34.547019559098040
Li     19.899850080346589      5.675386279773286     34.945802247291816
Li     18.699003907057655      7.570108284313006     24.730312991007779
Li     20.618546256501844      7.260211660422652     22.425024080002874
Li     19.355244445358874      7.200473089581176     28.902647971782027
Li     21.396815674171883      8.506434485527825     26.754754907574871
Li     18.727265461740306      6.302351407994051     32.266947028892623
Li     21.451478461311542      7.479495601617396     30.986940101335804
Li     20.599649259400262      8.753082935298853     -0.367651163061960
Li     20.028412396065949      8.767083415345381     33.534992671339424
Li     20.394533552180654      9.944132119770684     24.439644268228047
Li     20.751905408410195      9.761299390707670     29.542350625608851
Li      7.503428760107684      0.644642212616541     31.281868261218900
Li      8.171347531988063      0.978581698414638      0.357254445993572
Li     20.120210760775549      2.203657637197294     24.852054152112448
Li      4.309526134238055      3.509452271013639     23.810034232442849
Li     20.669181105327347      2.938667181814913     28.013677577253670
Li     22.238109714504994      3.815614298274684     25.861584720258797
Li     20.170605594947855      3.206554388248703     32.745198644636737
Li      2.828679278804809      2.413567544172053     30.971115953152133
Li     19.861151632291520      2.112168186562541     35.776562396922870
Li      3.659409580842235      3.181718857184776     33.451741741017642
Li     22.068792075913290      6.590839726677577     24.840934435909723
Li     24.743865748557159      5.899373854568801     23.662963576503454
Li     21.854216581985469      5.771513943689514     28.076860002512234
Li     24.294370311808152      6.084430291651457     26.759987673627894
Li     22.003409079879027      5.655597876131890     33.199195823316060
Li     23.558993847896243      5.215128822887940     30.265605170976269
Li     23.546802571305452      8.140384664066000     -0.478617279549973
Li     24.863481055862987      5.352825082075767     33.007903143728768
Li     24.301897554505892      8.818227226867144     25.851788646793466
Li     26.558262639420015      8.239050095653457     24.179714366770732
Li     23.467485236196232      8.134574871405301     28.771269431478423
Li     26.668346056237436      7.605418295349956     27.191023200673520
Li     22.778827129312624      8.697827970712842     33.959214752219523
Li     25.743290357697951      7.475990822750074     30.287714342249693
Li     26.288729866957162      7.763526895198165     -0.348858108028210
Li     26.299774119068640     10.014616700649210     31.877411972247611
Li      7.789787054137992      5.417405715660266     25.942489174907493
Li      6.877221873468682      5.029746001820905     29.097125436197491
Li      7.620254282164843      5.314912296600099     31.872912463330927
Li      7.832994135789898      5.653906721146506     35.877236701611139
Li     29.134454936454532      8.978749959167613     24.843628875677830
Li     17.619257006795095      0.727018741658910     21.476698715860216
Li     28.672021156234251      9.711245642906265     27.602324576952693
Li     12.365335329411403      8.773627083681493     26.907822981284809
Li     28.447368852095575      9.287069421037554     30.619331067347293
Li     11.603994282631705      9.039684414811573     29.635509296747088
Li     10.443195775307013      8.032699205790269     36.071707513715324
Li     11.475873321724842      9.331413892378235     33.646784412465891
Li      2.122107796764125      0.433680789944729     15.548576613959142
Li      5.958864899808285      1.021179148258380     13.165369386431291
Li      3.066642037397749      0.278284128556366     12.031036636779783
Li      1.262963579533807      0.458570006513907      8.511345452005786
Li      4.794480261428407      0.699186447872564      8.039924661164527
Li      3.186440796256810      1.888614983907704     18.956771378968806
Li     19.939470128217689      1.984454094851551     20.306765334075617
Li     30.453501116074229     10.908530272425576      3.275091199400787
Li     11.580638523279607      2.382388737004808      2.798644142586700
Li      9.847943810893282      5.254915819010575      2.583665550477966
Li      6.758030265466290      3.161475614194367      3.847827813281071
Li     26.346431918292435     10.726875984438349      1.676116385669611
Li      7.454647443878120      4.687427140587113     15.174137291796043
Li      7.117645414445565      1.542627989282110     15.719659923561757
Li     12.400749222818268      2.249373174897746      8.912804996661064
Li     10.807009832219693      5.058405427261047     13.195864797051533
Li      7.749490305591731      4.136687350297033     11.591185259938714
Li      6.245718513898163      4.221479516121504      7.843878446043980
Li     13.015654818020419      2.668891305780170     15.048269206327779
Li     11.287116007078817      5.246781242992131      6.132193553402074
Li     26.107473509017311      7.101995298428132     18.789276382942187
Li      6.599827094888164      4.680977886363695     21.881372183218375
Li     13.263845786162403      3.180630013069304     18.764818337701939
Li      7.107301159453710      1.922233713229287     19.360421049774882
Li     21.200084296638838      5.709526468108383      2.762492207669600
Li     15.098393442852849      8.383924349574743      3.117766712176604
Li     20.724120231188397      3.265994965520269      6.674969534489948
Li      4.786290701599277      1.104082788195174      1.575051000617923
Li     18.407897799419075      2.919579420072742      1.006539969330747
Li     18.183317442299547      7.159386048014152      2.833804714974205
Li     12.365395208115620      8.200180724033141      4.936111506632673
Li     14.867469653178656      4.096457765280451      1.143501710964552
Li     11.484930128142690      7.977519313489595     15.250369289755254
Li     16.402171247165562      3.020769361353819      7.168580883160488
Li     22.374765426268230      3.778872593172614     15.269960619330625
Li     10.970863195370862      5.814453423776277     18.373806851650521
Li     17.153893804518404      5.913199770877329      8.749896865407553
Li     15.670623433880932      8.829550843397197     13.248900084416958
Li     12.572436109079653      7.982141793748124     11.639591231535606
Li     15.254182223795846      3.078281332241080     10.605613526729266
Li     11.127352941794349      8.316288029328055      7.932546413689061
Li     16.641174687633175      2.588929675883703     14.179576250119581
Li     18.145855355526891      5.996894047314683     14.495829391644303
Li     14.505303652494380      8.338477297033982      7.536938436603514
Li     22.725877210427271      3.642899902157519      9.285998699792575
Li     20.115816418195504      3.227151662958736     11.868346059252255
Li     16.261764546551383     -0.278360362358235     18.877920439264987
Li     17.314496013305813      3.870775308205458     21.826868558373778
Li     29.378833955644691      8.883709779674792     20.435400701686948
Li     17.500014210660265      7.117968615386855     18.649098212583137
Li     16.969452777704110      3.997347969208800     18.054854771185081
Li     13.475964104261370      7.043123011468430     20.191162387601167
Li     28.996551040459188      8.300917072245348      0.993848572820635
Li     24.820923458359211      9.603968880337685      3.638228994573883
Li     24.914204903214728      6.817683411653157      6.211420177796306
Li     25.885884989919607      6.954966479570903      2.465283575042086
Li     22.860227854282524      4.700730609944546      0.237616642205512
Li      6.193862914822851      0.056914151653985      5.579525741816969
Li     17.205168034463536     11.194026072329581      4.609646329232485
Li     22.660282771104971      9.995064537852922      1.388536956163238
Li     20.444034512288074      8.194296294873105      6.480535449435113
Li     26.857850897786374      7.709139772874523     15.116433476122339
Li     14.471984975843759      9.291121049500836     18.143383979212842
Li     22.099516464442225      9.808974451478596      8.569965696449740
Li     20.069174451178359      6.811181216855101     10.442377105562695
Li     21.742020650136187      6.578770046912918     14.296136527105684
Li     22.563768052408516     10.052980412202494     15.393377380159725
Li     27.436952575376406      7.344181136452620      8.728580541631272
Li     24.477580174604693      7.185091032206799     12.142558253854506
Li     22.765239891011099      4.985467305328153     19.037890231082439
Li     21.910301880535265      9.350319803215802     18.896786444951381
Li     20.294581694514086      6.149000446566586     18.242803216706616
Li     17.386435887679667     10.306350143042689     19.410357525221801
Li     16.207555757423894     -0.196595535913688      7.330765158265718
Li     26.938806087160806     10.045175323034693     34.657890026126445
Li     25.413746287112470      7.932379885371838     33.775712468280730
Li     26.243521379865307     10.779944925996553      6.560749481652614
Li     17.351105918366404     -0.094021548682751     15.387645310960057
Li     24.939358971448147     10.641334073093624     10.005289748492201
Li     26.257310166205180     10.502332425404838     13.957330723542242
Li     17.600791832966262     -0.009727952901819     10.441035050799471
Li     29.154224253876791     10.883394062850828     11.944305802496009
Li     26.187464751365994      9.348010558098172     21.730465752838846
Li     12.352370881985248      0.014278581549107     18.993877412371514
P       5.964523518780162      4.265150529835495      1.695234438517951
P       4.572748887835148      3.670592610003568     13.351696364924374
P       4.604150995814369      2.155823627362729     21.706241715301292
P      11.685297253988873      6.740339869802073      1.158614704738136
P      23.526962308333978      3.440032821322805      5.038783129727313
P       9.438869270704016      0.968955675283468      4.481095879137556
P      14.342240088191396      0.324805967688422      0.573369758186761
P       9.885237160395834      1.517188839374658     13.715986846832774
P       8.646318353579034      1.634022583788994      8.004465852232977
P       9.870196585065264      2.327753728087651     17.330330480621946
P       9.116979132839500      7.469422664090589     13.120440546935162
P      13.250429472079665      0.166654875440647     21.536189122723520
P       9.923806414553885      5.937793958018000     21.265794019167558
P      14.977750607749087      9.358959366827500      0.445346570394854
P      28.171075189132367      7.886822865665541      5.018518047399843
P      12.711969407486782      6.300905279493307      3.079140481687664
P      19.985364267822725      5.091060861609026      0.102197664167830
P      14.624916524397889      5.466592192746477     13.732465433160321
P      13.303525432366838      5.715955780853133      8.247751912499645
P      14.602568928749879      6.371944706496736     17.257492787635350
P      18.992492982276275      3.283811405062297     15.896591911583570
P      14.079381120237018     11.245315756982178     12.970142093204098
P      18.706950548638211      3.446797582355110      9.082893362890436
P      18.526417983034118      5.205046981036964     20.050418039065665
P      14.400750896276021     10.145574874316418     21.250518431603869
P      18.676642430668096     -0.094124904319631      5.495112786465895
P      19.411036359288062      9.692733441555253      3.319955436391143
P      21.089989684740431      9.717392221924658     35.554241304407341
P      19.558687938724781      9.271973975995511     13.679159752388411
P      18.138219095481873      9.522548844714178      8.289026547039784
P      19.396502014581163     10.108928081279277     17.176657377827791
P      23.934090206853551      7.104493123884351     16.457702259059886
P      23.399361515120283      7.146481298844894      8.759904205129041
P      23.235759697907564      6.668199260475843     20.901847040775905
P      28.512895518475744     11.032278101559923     15.940161303464615
P      28.316655372420563     11.140365836046273      8.786065720126185
S       6.342325107393141      2.574792865454022      0.243641825851268
S       4.667883083115699      1.879177781937817      4.509497931257068
S      20.424171815641877      0.967241094152066      5.431432806041272
S       7.142873486936246      0.256066285712219      7.911736340064695
S       4.175417763079487      2.929410390796623      7.640306648887600
S       1.289583298916579      1.153618169946755     13.388082328711619
S       4.875329689571481      2.488729843435843     15.032410699508658
S       4.579998106127878      2.406584565841829     11.712832302587900
S       6.166757387656362      0.758840574157902     21.778243163842696
S       2.856040638933592      0.929136750858253     21.258428032245114
S       5.018584470672508      3.238173689489491     19.887884752778032
S      10.939182882688501      4.937810565043196      0.197529199827269
S       7.602489449673522      5.589198259861506      1.206488169921020
S       8.887967388463679      7.173878856372871      3.795531377685784
S       8.902205499016102      2.430942598416356      5.974461899611405
S       8.941100467312904      2.101172414793145      2.827881069903482
S      17.037450605251443      1.142463569832833      5.331122360449174
S      25.157125889375735      4.700720331134245      4.822322911221727
S      11.806662670119858      4.553684261116433      3.800811327368966
S      12.393541746063967      1.203554915348433      0.808201614717204
S      15.807501628614228      1.857878651964240      0.681942748219249
S       8.218251805121234      3.359925779973761      8.950341093276908
S       8.072062002357812      2.429284177696621     13.482812547797954
S      10.346978846623186      0.714628595894802      8.634016491809575
S      11.398612731617316      2.728400068172328     13.224140104731926
S      11.688238849952311      4.493952433032952      8.422234352152666
S       9.967306318926511      0.802588291227227     15.792668205426835
S      14.363834864119442      1.021715591614831     18.006814485434870
S       9.360678844723122      6.690392615675639      7.136285122738453
S      13.981746991021852      0.418094715643744     14.712401019973937
S       8.054143843991371      3.242754956622324     17.281640479398664
S      11.423392471058801      3.624871564834290     17.052243750142498
S      17.184531340051763      0.494398092295581     12.919836727262121
S      25.319077454269358      4.924969353130691     12.510227749447640
S       9.421154473274692      6.345570946283129     14.860337979501010
S      13.919239032553579      0.734119079614725      7.652458484634804
S       9.247946850629583      6.200556098720178     11.503729509648727
S      13.770230734519821      0.997835239024793     10.953666519958073
S      12.967922914463042      2.267706438789262     21.102643746679217
S       9.998538235607212      1.120612527060474     18.964886583166312
S      11.850653376623283      5.246447264851259     20.620776331461201
S       8.784164830172035      4.148482084621548     21.071392519317659
S       9.355746853419445      7.199862442900454     19.649024871652113
S       6.766104403609192      3.943010786552313     24.280577734054226
S      15.220593207399602      7.949810826613040     35.921449414865862
S      21.412943215842173      3.734338992038039     34.661597887291734
S      11.216926135673198      6.963161745247031     33.916992416016278
S      13.541182199217655     10.188765476392982      3.919365998765867
S      13.557831505797546      6.402120113489882      6.304777605122334
S      13.544049803464919      4.618830474476961     35.807207020100670
S      21.773036216422696      4.381526593640143      4.723908876207599
S      14.803379099956617      5.937343876166538      2.762711335757925
S      29.679453763810294      9.298625886277366      5.089096137852887
S      17.314150020241460      9.435991651265473      2.868344253065543
S      18.175617282908249      5.374970181976593      1.194719717020005
S      21.395612029560350      6.687429064076783      0.505210905119138
S      20.913461122641571      3.536227586384045      1.220798256258839
S      17.400205970389525      1.769684637441422     35.532900336304095
S      14.642883333938514      3.538925667811697     13.061160125553217
S      13.042761244511672      7.470652974607673      9.316025154380030
S      12.870185438286821      6.453827179885780     13.504942584296478
S      15.013236497135162      4.671823953373201      8.759191612405386
S      16.211404949531360      6.526273715751464     13.134819381637705
S      16.633865560258304      8.219253214171061      8.623965142779532
S      14.681323721764016      4.800484740859786     15.813437012156966
S      18.677976716352745      5.147162157556053     16.774649131043752
S      13.590392392306978     10.557757561735142      7.314603966723060
S      18.722047472658833      3.724611617394534     13.916549500960683
S      12.811479858532845      7.351113568128726     17.521286805349458
S      20.788388928278223      2.378845073067729     16.360995908908794
S      16.000539952958235      7.759970594157653     16.834399182781763
S      17.428510259649926      2.106121976396794     16.565394598205248
S      22.029374801992354      4.466257086987973     12.933468169141575
S      20.486948926099132      2.425471524494728      9.227302163383557
S      29.925957181253960      8.661789941698565     12.420892938932791
S      17.161996173478322      2.078594933715498      9.280347820153805
S      14.395235584144137     10.307572587077649     14.781191210959905
S      18.510997240797604      4.373435554842760      7.262300469855854
S      14.215139065542569      9.899414849319795     11.436224585628057
S      18.536819414183171      4.811352011178703     10.607492132145731
S      18.532158715086382      6.032411041649022     22.169826840955572
S      20.472355104423269      4.304236806490068     19.807023790108463
S      15.872297112899574      3.654574254636604     23.786784959330404
S      14.973700151480994      5.195308281726541     18.909801049930056
S      15.711671750694981      8.717190982007528     20.315910310752045
S      12.764348576950502      8.866766916757674     21.753101185249538
S      -0.525489344882912     -0.138925444144103     20.166047904957196
S      28.364655889602968      8.733141288447216     22.657617305518549
S      27.212927154191355      7.809017052595832     35.403256660586273
S       1.803579478059649      0.088153513869351     36.460391143969396
S      18.586181099539889      9.960888200116459      6.294186254919786
S      20.078726665894138     10.300449763221959      1.375409800352928
S      26.262580166125172      8.630695138256232      5.342470628224827
S      20.220723020981918      7.820894249839077      3.875159669513572
S      22.654457924493816     10.735134931605437      3.996641614719013
S       8.366694368087908      1.629059388266962     35.470062980377961
S      24.643511414639438     10.190650068521787     33.522803405773651
S      24.890059129388597      8.834834718736243      1.394761207568228
S      23.639533427853195      6.613360361921527     34.616601197714388
S      19.773582895734169      7.347649704779438     12.988342231696537
S       3.337902182239667     -0.113820210143483      9.714706834413336
S      17.816658549614697     10.189598267618772     13.236686682009305
S      19.893982323993985      8.751872430281507      9.005235045771512
S      21.170384525234248     10.449074056769613     13.354099477418981
S      19.517471585080635      8.572264367573259     15.719545522501518
S      24.027062903842829      8.484513398642076     17.949125194911741
S      23.633983836602152      8.034946197313028     14.635061683515962
S      17.672082501849388     11.177821575541465     17.083600235388083
S      25.683634345959149      6.043103605809579     16.527780748461623
S       6.846425265203774     -0.275835087710903     17.803213977005043
S      22.311183510846490      5.810280720676525     16.726368461077890
S      26.614024847721812      8.339161467885384     12.652186273696088
S      25.217797874154389      6.153032172230988      8.572453737278469
S      21.927069791006190      5.821085805971408      9.213086970784239
S      22.997935325821981      8.124056321270825      6.982199701756701
S      23.471080036857973      8.569662120051914     10.269520502736261
S      22.248005414322485      8.507693495783185     21.162927311331991
S      25.298640844434836      6.978927737699918     21.352495712585750
S      22.518003545074915      5.514785510995261     22.755606584863440
S      19.390731570338925      8.848066369775236     18.815601484282254
S      19.040792606604153      2.236552216697754     22.635381426737471
S      12.237199174455956      9.742588416059682     35.964109942661956
S      11.431262070428041      0.558778005516322      4.531915679193503
S      28.755560593194641     10.628620197436055      1.678529597594802
S      28.578960463314129     10.361034494353561     32.885323720824964
S      24.356221306038062     11.112373011503225     12.382932149304745
S      30.254041065380122      9.934583907185628     16.117431142801770
S      26.869498575229692      9.881271219149991     16.383650669954751
S      30.090515768700538     10.113198599260157      8.922062409105214
S      26.820742272962736      9.735162301578255      8.824208326775794
S      15.395127097096816     -0.113475752173402     21.222232258828864
S      25.216400456501280     10.306551381993552     23.887573787137619
