240

Li      8.023142436381537      0.212065424250423     21.370384059939276
Li     14.267956681695912      8.928379858598323     20.925450115643113
Li     17.197956486003239      8.294075163101962     21.586694249258674
Li     16.395177815490744      5.399645004206460     20.677224021395176
Li     12.432547674891055      5.580457628384559     21.038283331722130
Li      3.561530522357544      5.444007768346515     21.087735026138624
Li      8.134429263070363      8.229602121777512     14.143553626399973
Li      8.073846201097115      2.989440780062294     17.410539644829420
Li      5.961207733848160      4.275207745078356     13.891791085860053
Li     11.574139407178892      3.583020034147081     14.857789286618315
Li      8.160402498230217      0.811609212743125     14.030957042556889
Li     10.139519889805785      1.833010895956538     15.943234130139627
Li      6.055273052916752      1.942945462699832     15.934461727760832
Li      8.367041319364498      3.817530784526319     15.008759920692617
Li      4.075751159843279      0.760245515435958     14.102000038166361
Li     12.268297431702406      0.969462668422000     14.175694042807422
Li     14.323202751281746     13.832866626921186     15.306395468870369
Li     19.052147468247732     13.694481721383077     15.356120151278747
Li      8.041439959191599      5.561657172017970     17.236336073728889
Li      6.676019119583091      6.375937406749284     15.199695099964813
Li     21.824653044472026     13.511546340569430     15.372013968940191
Li     12.158691782893927     12.925750418204553     16.082581418273886
Li      8.108667234793501      5.240399411637449     19.874118719433106
Li     14.391863463575087     14.211602700502965     17.746059530137373
Li     18.422372166169172     14.339447001101906     17.823091460546063
Li     16.571129898400955     10.260024396170410     17.409512933526905
Li     16.479980561832036     12.702525400260866     16.202231054697567
Li     18.339888017308517     11.466891724703183     21.314711235961656
Li     14.419272307257105     11.600736651357240     21.096642094706517
Li      8.029146855952103      0.716959259755943     19.084481363817062
Li     16.336616054131685      7.883168974828478     19.162564655223346
Li     12.146861916842292     10.298941533999457     17.610024708953656
Li     13.150653993891982     12.363371033795197     18.781915525069582
Li     12.206934481464675      7.983828418170613     19.522184630524173
Li     20.663017361893981     10.039678336298612     17.736767557565312
Li     18.615385580591543     11.661439036860703     18.971063753646934
Li     20.614786699436863      7.944896552350007     20.208907206931769
Li     14.464855220440691     10.252376090782182     18.765333814259140
Li     18.543722656204146      9.177040018376060     19.707739526629364
Li     16.268455629577399     12.634626317840153     19.700053608102966
Li     12.319631115440835     10.751616324061041     15.033896941129255
Li     20.650469528571278     11.137909605272151     15.237560446159440
Li      7.973016119060627     12.795095640253908     10.638416718481844
Li     10.212944926725525     11.510961320488249      9.560587952360176
Li     22.814867234456550     11.565747385439010      8.885806728933270
Li      8.375092850346418     12.735575604947204      8.242845700062157
Li      6.075599449505075      9.024499794024779      8.349163195354393
Li     10.355052035702471      9.368054454617260      8.210895704969730
Li     16.759140160496596      0.773034756838522      8.977461071361640
Li     14.541051160970641      1.906957999964377      8.166477360218584
Li     12.698986825235112      8.151932717040546      8.914150575739209
Li     20.131011524815662      8.273994299186924      8.750562722731718
Li      0.595957693623548      0.252769226155365     11.804104545360945
Li      5.955342326083050      9.279563664095209     10.682289859282502
Li     10.497971812682822      9.082581165440271     10.683430983798591
Li      8.076023909597824      5.426783831847848     10.656197568831614
Li      8.282241853567632      7.747235984554337      8.931812776993317
Li      9.635175009816962      6.198645933701583     15.150016384650263
Li      5.995798198700904      6.788287433316350     12.570602661669772
Li      8.132227141392105     10.489842900976308     12.338562302489018
Li      8.037014414593049      3.080806663339629     12.207850976797056
Li     19.165720927477484      4.797358187824774     11.237151802102497
Li     20.671341747846277      7.248131598431749     11.143831366029634
Li      3.938360049840858      3.008466304717202     12.371890365988236
Li     12.242955659018454      6.235475763407846     10.876861142423223
Li     10.267838771766289      6.861455814644966     12.649026721558856
Li     12.309743875857874      3.149136940177880     12.394075534988705
Li      5.408488431672140      4.810692058021739     11.057979958587687
Li     10.144815178844125      4.399702784725346     12.899664004227811
Li      7.990821529588572      7.994822336412316     11.741398692637199
Li      4.008450978009084      5.597049466195215      8.947243209411523
Li     12.454993444252901      5.568255487057471      8.327366786229566
Li     10.369893170352842      1.578916659504131     21.052150641824205
Li     14.290817780852571      1.944680031924018     20.683709689240427
Li     20.632554383475593     12.906249993323607     20.766114822490760
Li      1.860299779547164      1.970743873505890     20.878835304428936
Li      5.730205414957443      1.666000818892726     21.086805846581999
Li     12.059733775770859     12.986796109918432     21.010816428541517
Li      8.087309422680002     12.823867546899402     20.804829822510097
Li      6.025144497415355      9.312418290010147     20.798526631366617
Li     10.223327678910474      9.272059410028000     20.832370215409181
Li      8.114238900835234      7.152382827142103     21.639208106164396
Li      9.977610811389765     11.410259144553176     14.182383859098112
Li     14.548618144583088     11.540905309859632     14.042749838573425
Li     12.324722519128327      7.939778171047135     14.012040843065158
Li     14.458042247179625      9.193522187467353     15.888189140220105
Li     10.265495877014004      9.048426739517442     15.665716859684359
Li     10.218000343856188      6.962132440098427     17.692288343209086
Li     14.194749561369884      6.858421754785399     17.689578506655913
Li     11.236232816319063      5.008050510565180     18.882865910601389
Li     12.303460108824291      5.670267780917724     16.021494948205127
Li     14.198391710700690      4.311606834696577     19.247400093978207
Li     10.062760950744941      4.257967090653212     21.165785180121635
Li     18.343101786142391     11.520213915977561     13.951121790010644
Li     22.901300879859942     11.509691775096318     14.000367447470438
Li     20.622871964835173      7.925492110670289     14.033365731987685
Li      5.883226420911853      9.116988693435708     15.597278522196067
Li     18.497601693797698      9.108230907428899     15.795210693703222
Li     18.765388673998178      6.913581992795079     17.757203372034212
Li      5.863023616746491      7.082424213666051     17.705218941128976
Li      4.869798994406340      5.108844307838228     18.865941555150393
Li      3.910190825888689      5.642828301953825     15.787584344289758
Li      6.083841630514761      4.303179373837803     21.098752919826122
Li     18.588070871333709      4.443818852188122     19.301591901024729
Li     16.421363507175901      8.176024403336065     14.062362765235202
Li     16.181001064324111      2.962914327149964     17.655863147810003
Li     14.143603520131409      4.180613577404867     14.278139352839039
Li      3.805707490853050      3.183892269188402     15.205898435357396
Li     16.334065391199555      0.913210013081074     14.167323757234266
Li      1.743387078262938      1.858046935990673     15.664662802440548
Li     14.265933207723668      1.922580350157196     15.878447361317448
Li     16.442798100895306      3.952463532112658     15.285414108906028
Li      1.895285105595451      2.014049446968763     18.248578418440680
Li     22.775177482951975     14.226182954360322     17.729840574971725
Li     17.802630440069340      6.263536109804734     15.323755197184060
Li     15.062468159196490      6.311224290727298     15.281316481308894
Li     10.065912362014069      2.784401994438789     18.889498228251306
Li      6.079066917541010      2.747579325121632     18.865159346635775
Li     12.403119510628429      3.000922238062702     17.579636579581329
Li      3.932695948946582      3.161871393774708     17.565215335523760
Li     16.523697325553353      5.542315676477634     17.571963574881710
Li     12.237228584906694      0.739789476253915     19.279306291883763
Li      3.984714967699983      0.704211588127617     19.255815216212802
Li     20.640292839136109     12.705016912141657     17.702195222900681
Li     10.214499224823316     13.950726967671866     17.516637584874360
Li      8.062477989040188     10.400960768876617     15.871212989556113
Li      8.034269209676845     12.974685718019003     15.672132404908494
Li     10.304835499143021     11.686483444639080     19.457431725670876
Li     22.612458314742941     11.704749198261101     19.582471912746264
Li     16.383294533560054      0.687495290729886     19.361091110538851
Li      8.094136444691046      7.911658473456780     19.319303789166742
Li      6.709205050130511      9.711703880543539     18.114438681061674
Li      9.467078992180541      9.666849377439368     18.109126129794024
Li      8.085095152592000     11.991093622795290     18.063383784400056
Li      6.728963804755318      4.768595106282993      8.518206327026721
Li     18.495135226435142      4.142975656087883      8.839696375496342
Li      1.811048902873896      2.060428650525952     10.477553458324881
Li      5.905381588960124      2.002251515687334     10.631102092431291
Li      3.220978712353456      0.153645373738978     11.801007346639123
Li      3.868898250844826      0.839204345011540      9.104362185652510
Li     14.432742026372889     14.022894337706820     12.366799490076563
Li     10.296225721944019     13.959018456917152     14.303149957432812
Li     14.183354051234081      4.147872947985396      9.476032156683370
Li     10.068473530950200      4.529273763669532      8.903979059333041
Li     10.304134296688687      2.276632679341275     10.650984682288748
Li     14.872532988152894      1.556080498689022     10.731825357261656
Li     12.292281859042092      0.417140996494588     11.753074554921715
Li     12.335387844883655      0.777593828438666      9.016612294482314
Li     22.826433760129223     14.089934247995465     12.836706552651876
Li     18.353641700131000     14.121747882706634     12.520673351465183
Li     16.426386649639433     12.633326373021312     10.747713895704095
Li     18.440833843952067     11.341129445138172      8.921031386031032
Li     14.511679837451400     11.434043073361229      9.071593427514255
Li     16.517553675435042     13.606705404557209      8.331335116688212
Li     19.457008920375166     12.229751090632977     11.105857380269974
Li     12.747136309683516     12.569184803799009     10.832866385306595
Li      9.942274256765188      1.769152995604192      8.275933581057572
Li      6.648311101808027      1.633932958581391      8.261713760620029
Li     10.327322583897136     12.382995914441416     11.971981188104412
Li     22.058541731945063     12.124318982277913     11.280298416600058
Li     12.214836089293831     12.782996297801985      8.492367880929516
Li     20.659420914323121     12.838697058259676      8.831465086485446
Li      8.208946424251044      0.739935692629485     10.313334284175021
Li     12.331630902894936     10.357586755222636     12.301836111116542
Li     20.620642673323125     10.242855661010859     12.451671822635245
Li     14.316712919621589      9.185822050964028     10.679941818824842
Li     18.517360278948932      9.184625886743699     10.684313314501155
Li     16.270322083211390      5.478233253118685      8.458946310573644
Li     16.436455117072096      8.021766724123314      9.304069592257694
Li     18.362347966523767      6.866585195886055     12.498164371887322
Li     14.457007807401416      6.954891838037015     12.419100330138876
Li     16.405590135172098     10.351760552630354     12.324292453519135
Li     16.568893617061125      3.120336152108604     12.368963638910351
Li     14.458142018255780      4.542111121091746     12.000296437075153
Li     18.579209739199118      4.283177077915345     13.904984580935663
Li     16.525153444874501      5.619227787230108     10.821970947329735
P       8.054532095756921      2.827278491291396     20.472799259748161
P       8.063134041638707      0.634957820798092     16.496094705571526
P       8.078714260375639      7.989380726918005     16.642221437392116
P       5.991745729066376      4.347617258309339     16.557579059775254
P      10.152205621029559      4.339113192665639     16.744358209046847
P       3.892080062001125      0.805890172925540     16.571923793812196
P      12.243370586695503      0.603646763279498     16.653289090625897
P      14.277859883926535     13.956279092513522     20.299889849063494
P      18.412690653616295     13.845961273073192     20.222791191691027
P      16.405297910245494     10.225895598931629     20.286931455348149
P      10.139807444973872     11.562224862611185     16.611739784013142
P      14.288993539859929     11.591622764756595     16.622388242688974
P      12.363151892813740     10.442800720129950     20.171363563827967
P      10.155778045237019      6.719700192384478     20.311538667104482
P      22.684842297041971     11.599197989519260     16.652689098732388
P      20.541696685354626     10.499766729375596     20.118529271726846
P      18.399502096726135      6.741509500070050     20.214205645411258
P       6.059913700208236      6.712776346493621     20.331553391910301
P       8.167136775429164     12.863951151025551     13.147846485505537
P       8.159302457884584     10.267272721481170      9.201937876237192
P      16.374502447688503      3.137151655132654      9.477828758505467
P      22.852207347235311     14.036584658674911      9.268303307345695
P      10.273128743563383     13.925429428700010      9.762478227525891
P      20.677358033935466     10.478481803717949      9.650914552974308
P      12.332311034525565     10.444654500782290      9.492259858032462
P       6.049103683613729      9.167972030016093     13.083049857413764
P      10.202596023576042      9.210460920615295     13.094650845563717
P       8.082576364982804      5.624871694036422     13.105891908049717
P      18.527937100956692      6.642323957574974      9.590281040609486
P       6.065824230142264      6.826512353861229      9.573445722559679
P       3.926033288978049      5.511612973854654     13.034775350176240
P       1.921294522812416      1.848326543843785     13.095546542233174
P      14.384169316326371      6.581239371375427      9.675239567904626
P      12.307620282901151      5.518496802209921     13.206250693889437
P      10.229761147985165      1.976005335463545     13.078307025511679
P      14.317290819982396      1.977688892645717     13.039995871369712
P      12.158386453361903      3.152608619836355     20.231678554846724
P       3.931886971193408      3.140735604931027     20.111868383172890
P      16.455791773138760      7.890055010401372     16.618816986380835
P      14.363462281165267      4.374326628281111     16.692070277468741
P      18.532004238993594      4.261824839405809     16.638412517670563
P       8.115355544292681     10.448634837538080     20.032379559980470
P      12.398572673273613     12.812861915810393     13.309485882352041
P      20.564198427528176     12.823751229115445     13.231157245842690
P       8.136175091670445      3.102008149116635      9.497693163112448
P      14.401888008988896     14.053972304465145      9.444253928021752
P      18.563841236081636     14.024017361673451      9.554923040948633
P      16.416080194675729      5.534285723261876     13.277451651952408
S      14.345984537837353      6.675808358784860     20.116733645518558
S      18.615357626857502     11.522280886940250     16.500957101969117
S       6.033285199774410      1.897487044231388     13.025928924932270
S      10.527892667612821      6.902227674049790      9.102233608219432
S      12.258465659007696      8.026621488622581     16.592093623073588
S      20.605562729525850      8.001159493852693     16.462469525012697
S      16.487646419371774      3.023288112972163     20.013842552107327
S      16.461593955294830      0.725264308217022     16.670868445923460
S      22.738351975622304     14.072414985304448     20.140821010038930
S      10.101917271143845     14.146200881411726     20.011832054835587
S       3.936897734204408      3.217033439787540      9.689347039357648
S      12.089454096295851      3.117055432241283      8.738543668410124
S      16.444675765156482     12.825365420838352     13.136476619260959
S      16.485813908967550     10.379720543153823      9.851458155700932
S      14.371208444367451      9.242779103176584     13.190247828616370
S      18.506834431628754      9.215686991634440     13.158027739349583
