60

Li      6.800259872831588      4.122048111451900      6.035708921087229
Li      4.792347996091409      0.644870094037175      6.035816707222709
Li      2.785055532395973      4.121690424849064      6.035728688672098
Li      0.777143654609640      0.644512408271238      6.035836475205174
Li      4.792621554519473      2.962796790429625      7.551170646092022
Li     10.815737762677596      6.440332482853409      7.551043118164971
Li      8.807825878710460      2.963154474819347      7.551150893320377
Li      6.800533439166606      6.439974797436759      7.551062870942683
Li      2.785055443438675      1.803333728160680      9.174561571245814
Li      4.792967315548718      5.280511752479413      9.174453816782579
Li      6.800259779371281      1.803691407589997      9.174541823570046
Li      8.808171651570380      5.280869432200506      9.174434067283689
Li      0.777331569589902      0.643848342629601     10.844299220064972
Li      6.800447783334834      4.121384046858402     10.844171703845058
Li      4.792535899375752      0.644206037646642     10.844279477874014
Li      2.785243454214811      4.121026351989472     10.844191446159412
Li     10.816535483772373      6.440082052579957     12.493955278384119
Li      8.808623604931700      2.962904036171284     12.494063057886242
Li      6.801331151307553      6.439724367108717     12.493975025512038
Li      4.793419272268784      2.962546350628504     12.494082804920309
Li      8.808786997637190      5.281050937072920     14.150547455060799
Li      2.785670789506220      1.803515228750570     14.150674952229092
Li      4.793582666843091      5.280693247853662     14.150567203376307
Li      6.800875119654286      1.803872917572007     14.150655204285243
Li      6.801110946291380      4.121943860226160     15.800191873615221
Li      4.793199061711017      0.644765850475871     15.800299647111494
Li      2.785906610107743      4.121586179379642     15.800211624855329
Li      0.777994725435071      0.644408169424940     15.800319399439909
Li      4.792995726188329      2.962477664352584     17.470396446308381
Li     10.816111947729715      6.440013354433328     17.470268926044447
Li      8.808200064404225      2.962835343519070     17.470376697855048
Li      6.800907610038671      6.439655674189545     17.470288670966745
Li      2.785051968136508      1.802843661026061     19.093393809026217
Li      4.792963838005440      5.280021688625051     19.093286055116685
Li      6.800256289316133      1.803201348336212     19.093374052193912
Li      8.808168162096690      5.280379376095365     19.093266296480678
Li      0.776853953114145      0.643228279777416     20.608200836636822
Li      6.799970155887264      4.120763981379689     20.608073327369873
Li      4.792058275355386      0.643585965636950     20.608181114834952
Li      2.784765830610102      4.120406297128580     20.608093051621147
S       8.807923784525993      5.280952592087561      6.682845589410174
S       6.800011906813806      1.803774574572844      6.682953351972439
S       4.792719456934214      5.280594903983230      6.682865333942542
S       2.784807581870642      1.803416887995110      6.682973098585815
S       4.792289104769965      2.962278255638597     10.015257903964837
S       6.800200977150155      6.439456273902297     10.015150137976718
S       8.807493433982476      2.962635939285135     10.015238155680990
S      10.815405309487852      6.439813960041814     10.015130387576445
S       0.777423145541516      0.643893234317411     13.322587099754559
S       2.785335025635720      4.121071252369462     13.322479335253183
S       4.792627481772238      0.644250921287077     13.322567354292286
S       6.800539358793504      4.121428943351185     13.322459586808469
S       8.808494833745467      5.280738101107035     16.628597494799035
S       6.800582953843017      1.803560085824184     16.628705258749601
S       4.793290501291363      5.280380417027505     16.628617243491131
S       2.785378622747036      1.803202398034746     16.628725006275818
S       4.792106297167825      2.961177867875880     19.961771711688048
S       6.800018177001848      6.438355882655494     19.961663948716005
S       8.807310623103099      2.961535557129702     19.961751971849480
S      10.815222503612441      6.438713577094743     19.961644203447477
