28

Li      4.694020489527365      1.628321751509108      9.360636159692307
Li      4.693940721041497      1.628648984112225     11.795375970215890
Li      2.586748221081903      0.410585194207747     14.300677084502389
Li      2.585574188966851      0.410866876831539     10.556520918044964
Li      4.693988233417979      1.628395668108664     16.829506059181750
Li      4.692905701871712      1.628825340708109     19.338517419123942
Li      2.585217060114363      0.411099553261108     21.861712934375731
Li      2.585351646106954      0.410662770185542     18.086727469437776
Li      4.691992854284696      1.629170335276284     24.385517389634582
Li      4.690871604460671      1.629446021075598     26.894195437668778
Li      2.583880557373629      0.411743485693240     29.422414311064919
Li      2.583263047593270      0.411588348474628     25.639684352811738
Li      4.690749133031063      1.630665956901421     31.924502216677272
Li      4.690743480627144      1.630993097784109     34.359181981031000
Li      2.582991115764118      0.413735922447528     33.165953668241599
Li      2.585616535780131      2.846013304571581     15.550498095074069
Li      2.585830576552123      2.846110616067267     13.025798692032938
Li      2.583967197216104      2.846505356962913     23.116717759899224
Li      2.584605642517460      2.846482672960563     20.609777125972482
Li      2.582250670931219      2.847544217905132     30.695298248869683
Li      2.582857485417191      2.847080841391996     28.174645796308745
P       4.696081171216692      1.626970856922694     14.300562352562459
P       4.693937465124669      1.627356495446527     21.860393496360910
P       4.692028521306638      1.627982001946986     29.417656608919852
P       2.585482121403929      2.844104343241015     10.457103690665132
P       2.585123785423095      2.844264886700020     18.085795480162091
P       2.583382082308506      2.844891404019860     25.644568505490806
P       2.583843968950513      2.848205642317777     33.261748488721189
