150

Li     11.920544002296863      0.472300094408394     13.649751186513107
Li      3.950462701118257      7.456816871533097     13.403447844015686
Li      1.773879167012968      1.701631167342567     14.918975323189661
Li     12.059769255731370      1.456144586416565     16.425923476528652
Li     14.157440122544337      3.980078222607147     13.450371365202844
Li      7.830049411221539      7.615170863807857     13.825196990469188
Li      9.869256633096825      8.818781737575394     15.320720563731449
Li      5.802573682408963      1.691603091707438     15.285035929980664
Li      3.805204418750162      0.470181888902274     13.752651652279949
Li     14.004262391688233     10.203385126771947     15.780368526464452
Li     11.742843414416170      7.674323380162176     13.640698070231991
Li      9.859411437286875      1.587924481916529     15.170419755528906
Li      7.973552289509157      0.737275789528720     13.488794625114974
Li      9.796304444111327      3.898332277199827     13.668247741033435
Li     11.914331358979977      5.235707512081899     14.175506828035489
Li     14.028185122326553      8.720707164594527     13.623586140645287
Li     15.254523335685782      7.870266387043790     15.815192966083506
Li     13.418719075816755      4.415682786823990     15.998303279084773
Li      5.755178076924396      8.824147285976480     15.190703921052899
Li      3.713066585582657      5.227207987926288     15.162367816432987
Li      7.837173541274938      5.246932128526952     15.332655063906984
Li      5.808350270840198      4.069372992770548     13.817925181753511
Li     10.817224639308941      3.759010062525064     16.340835436554933
Li     12.186379127027056      5.276535444221377     20.279665023730562
Li     12.736844149092445      7.171625821077273     16.195603729386193
Li     12.130572344501587      7.777182552842020     23.800444123029688
Li     16.186746243345674     10.045943178695863     17.027730805157688
Li     13.978000340962625      8.789058178268240     20.336996076447075
Li      7.864332921685699      9.984477912349705     16.921770179518806
Li      3.713069597211248      0.581922701904225     18.625159331218782
Li      9.936408104272688      6.449060029987514     16.980832280618980
Li     11.953988554479652      7.669423977191569     18.772843962851820
Li     10.082423633068728      9.028666375871570     20.215549069147809
Li      7.962223962159547      0.474747209579317     18.658654776956329
Li     11.880161090449350      9.957958996027431     17.171088678880274
Li     12.030035576140392      9.986444124807599     22.092631151782488
Li     14.155211814527410      6.429397155366857     18.128927463789672
Li     11.199102937649144      5.564009445094056     22.708530819979330
Li     16.163120731361541      7.900444025321232     18.805872152722511
Li     14.075838158407196      6.565616043417127     21.993730967802239
Li     11.873667264789281      0.352998196006672     18.869158149304674
Li     15.889351776372026     10.052886396601135     21.872215371532786
Li     14.168613122549370      8.841731064862502     25.264258018053756
Li     11.867260277869567      8.283960975854026     26.675026331656145
Li      9.782529788009834      1.770451448738565     20.262524367692581
Li      7.808993803778707      0.584200222695276     23.665249021123969
Li     14.277045731001481      3.979780269386608     18.763172284258573
Li     14.076645470211080      4.150050072020319     23.738175941424689
Li      7.839443470761187      7.645576717938639     18.595753310701060
Li      5.782236822260509      6.433011740687049     16.954692116161016
Li      5.755090147940774      6.367105311968656     21.928339863424736
Li      3.804793412110121      5.361385599453372     20.312115394820381
Li      3.728830077623381      5.317505509302272     25.426156427868367
Li      7.919921167441017     10.072944241602965     21.948298704422967
Li      5.844848907994189      8.711575723516766     20.199805400934043
Li      5.770234513775743      8.856741126549899     25.499010183076329
Li     15.982767188903930      7.514301469127716     23.714571057075531
Li      1.745394660659905      1.657374879683240     20.354625500474242
Li      5.757605819761354      4.032684723334857     18.598619644624112
Li      3.782270135593675      2.838728111625178     16.872266360079788
Li      3.766082456696842      2.912970389935276     21.992846244094917
Li      9.904397537284805      7.938862400799616     22.605686739095280
Li      7.724570742509238      5.085088650257602     20.264230924654061
Li      7.645968681136782      5.354744520472129     25.559541652868042
Li      5.777051759144986      4.161511259365200     23.673483839276038
Li      9.776780747577556      8.879232414815034     25.337459196131253
Li      7.777465320360442      7.620280374193848     23.934866815767172
Li      3.786374156035516      0.561001072051835     23.687546010591319
Li     11.962865578120832      2.979910530979847     18.619317604146222
Li      7.881998638474386      2.840735313089547     17.002838324251734
Li      7.700196682230191      2.826384312075556     21.918972418453599
Li      5.810938995644582      1.654336498981704     20.281936531285144
Li      5.800781360599054      1.893159699387472     25.029432805911512
Li      9.936149605741562      2.678341947451287     23.156577032551578
Li      9.775638328383787      4.130334861576270     18.716503194388437
Li      8.639494445664134      5.076969525337763     23.033487334665072
Li      9.889164751178779      4.226143040358539     25.282598097409601
Li      7.152374429105810      0.308549640794134     26.553624838265758
Li      9.936153905224296      6.394314693247728     20.440535829326777
Li      5.565102148706479      8.897607570444308     22.751959936828360
Li     12.064014347212888      5.459645670399122     25.511497233643606
Li     12.101179159165451      2.913114201655061     21.870592272920316
Li      9.843576304288510      1.631105483217776     25.565238076834945
Li      1.711649605897041      1.773038982274602     25.373070671876409
Li     12.035583298965959      0.690565211785970     23.829647788004372
Li      4.600391231944626      0.177477148070313     26.748224634956234
Li      7.597725348607561      3.080718852894943     26.931548781259941
Li      9.448907634419676      6.711977698790975     26.953914432853988
Li     14.055924690137344      6.522947066508097     27.179531453161601
Li     16.091182471600256      7.725247760386030     28.581747600665565
Li      3.836065066225253      2.956606967263363     27.097136113358228
Li      5.624060856362282      4.239586099812064     28.658131556148696
Li      7.763091307249027      7.743247225617364     28.764782726782979
Li      5.829052607246898      6.511338435620505     27.180683359289027
Li      7.784818984456956      3.095148420594843     29.347139243865556
Li     10.015836043986960      4.185935758117144     28.324563289277943
Li     10.674531208138824      6.872304480018765     29.100426776135588
Li      8.159071184762064      0.505946036568884     28.812329801770783
Li     14.065955044170446      4.143494787578531     28.581730970793167
Li     12.069574585316774      2.946361168203759     27.104754249846039
Li     12.035918954881463      0.610625123972484     28.622076485212951
Li     16.174449900186310     10.042471886099493     27.075340985838533
Li     11.999832344724721      9.859255136413209     28.856770564218781
Li      7.847978534735874     10.017562754052383     27.112350297199708
Li      3.558786550037308      0.698717968489147     28.981368047377682
P      14.026329066240942      6.381769844666013     14.158714954007188
P      16.005666468175757      9.884102387347079     14.320770090296879
P      12.016057542446610      2.855239619192665     14.350234150396767
P      12.016789946650212      5.304077245376685     17.829937892082995
P      11.894988413268408      7.598764680214361     21.277967989688978
P      14.020235674730545      8.793665624609075     17.751408266630804
P       9.935787116709122      4.060053695354733     21.178711092149793
P       7.921816000743190      2.996326669500605     24.507638002143423
P       9.912202264389363      6.535604530041006     24.611105442532356
P      11.949776723345913     10.070006153776365     24.704974788927931
P      10.016915249009662      1.754543053319605     17.765877285506171
P      16.190517035935880      7.702253141883171     21.280273284068027
P       5.922757343076457      1.695673607456788     28.337192201419278
P       7.862710817977889      5.286413595521610     28.223695265784770
P       9.877618726731662      8.937568049588922     28.103805566499997
S       7.890640620794984      9.971637077510650     14.435795658017259
S       9.846609600335913      6.431428783620061     14.423748825001724
S      11.995115376958152      9.996597326670138     14.333547748258233
S       5.833416948718724      6.396520012618025     14.471010600578966
S       3.805459876890252      2.835925007757135     14.393307894034121
S       7.798830448936351      2.896491570687263     14.470189412434529
S       9.852653877437545      8.835412307358592     17.802716457816199
S       7.813519108630787      0.559204744945395     21.172776917619355
S      14.111063765795679      4.039208600354092     21.229751146196275
S       3.786280402831615      5.179083278528847     17.734130580999729
S      14.049624227218011      6.465582323743063     24.664829012653300
S       5.865986951067956      8.808243869301664     17.737654527122000
S       1.662111982128344      1.683656585666763     17.841603284300046
S       3.706605628592285      2.962208142194974     24.539399133094612
S       7.818127490861620      5.294092199496689     17.820898132524906
S       5.759793168886027      4.050229070574386     21.143253102415173
S       7.870451290663349      7.653874439495346     21.229932527261763
S       5.740416890359151      6.555031546896315     24.538026860033050
S       3.755904307690316      0.566567975015020     21.176305536125760
S       5.772128077108633      1.684059565059932     17.779759706686622
S      11.946570997749918      2.980984749113846     24.611816502647283
S      12.027079178812476      0.479640022799628     21.344812192239598
S      16.191998886110856     10.049288759981291     24.540706719165627
S       7.751956052218967     10.035495746181855     24.460889731079270
S       3.692100438695045      5.368840700523213     27.881780166368248
S       9.981513710812445      1.784180341167058     28.031964259668168
S      12.050295168451695      5.301863666186233     27.940546638050989
S      14.108118013820908      8.963454351166602     27.844796622720661
S       1.703417426460220      1.790808649916131     27.840864775330665
S       5.749793631150339      8.916519756503483     27.918905036652674
