132

Li     12.989135526937856      7.280627976699054      7.381996964337343
Li      8.951350142117414     -0.100870971551407      7.161790267201533
Li     11.049014724169909      3.971503069569034      7.146617365877932
Li      4.851443385679734      7.403591878496033      7.237479266017244
Li      0.560901008129940     -0.002967569325322      7.608120189506349
Li     13.359122538213876      2.573059872644314      6.826927025466729
Li      9.098680615082408      7.183887947913205      6.997060592128697
Li      4.981367870721903     -0.222692628851992      7.029820987613477
Li      6.790193948994475      4.133427402044113      6.845395674533707
Li     11.101577997425977      6.058398928054683      8.779126478581036
Li     15.052653271791582      8.579696193025852     10.548045900090937
Li     13.063981626463374      9.558137078015248      8.740775516272834
Li     11.133126246648947      1.151711901112523     10.548954602539260
Li      8.295796617710172      0.803433152482264      9.685768630723132
Li     13.101396228344697      5.049295948459769     10.487670860568018
Li     15.037431409283302      6.232708961125791      8.955575711774150
Li      6.891487457916362      8.660910459597309     10.652316337624335
Li     17.189423681416795      9.803350858116268      8.860683375481315
Li      2.618658540025897      1.219601717922073     10.491762825921457
Li     12.849653189476534      2.566676336562073      9.112383673899085
Li      4.809063818089902      4.743800831415111     10.549870597354236
Li      6.848232925151613      6.055962720578851      8.719767837150931
Li     11.089524788686585      8.627670492407395     10.498151226052034
Li      8.998773766120870      9.803824620646218      8.732144297316633
Li      5.494256793236802      0.716367368824901      9.724060195615859
Li      4.722104398386276      2.515099570270448      7.575810049355661
Li      7.001339260580685      3.372741931571210      9.223170242209171
Li      2.773011977029174      3.665617339926600      8.755623698449842
Li      9.999711487360408      3.155479153445169      9.318567835550565
Li      4.819638648868612      7.097668489097527      9.837169958795545
Li     15.234567081633555      5.175684109581510      6.623574520668241
Li      8.877708013648810      4.984134068171079     10.663147488235140
Li      8.913434165139559      7.267306405287528      9.489392767743176
Li      8.861481424707387      2.495020021576720      7.197359206736463
Li     15.196446667518428      8.684271176876019     15.835185910438037
Li      7.025796920793988     10.849302208060658     17.806838443807379
Li     17.297783680030310     10.567768157976117     16.298692503367562
Li      2.612594838361274      3.759869286681415     17.287232322843067
Li     15.166036117381447      6.133756670872106     15.507377994053796
Li      4.787556528633601      7.503891460331989     17.319423204956163
Li      6.843214240777272      8.666622308663740     15.757997490119166
Li      4.765288037538926      0.187818382674151     17.745303654350518
Li      2.765558072599238      1.288618568277004     13.629892205248810
Li      6.926570435598069      3.684869620804254     17.463782653871828
Li      4.855802617591064      4.983603442889352     15.870901618761541
Li      6.983170144332478      6.255192090758217     16.410766248629812
Li     10.997804934285242      6.888563822610167     16.251908499660647
Li      8.748115132335258      0.019721734739010     17.292231212794427
Li      6.944505313536268      1.304310996191648     15.419689380494455
Li     11.037251778872944      3.888811298521968     17.563859321606721
Li      9.001035266497052      4.897197030678191     15.554178342823130
Li     13.219366264303570      7.313814330273613     17.385219168405683
Li     17.410597722567513      9.788157890566968     18.939037910321399
Li     12.906146379064220      2.520174169596861     19.059829012820842
Li      2.742577138273651      3.911816809666742     19.650515205414678
Li      8.970588861431155      9.510391367986776     19.261876488685747
Li      5.020948393095146      2.531568626732096     19.127014539750483
Li      7.005581472131329      5.982184569632097     19.099177959493847
Li     12.999130423231380      9.796003913532672     19.004422684078360
Li      8.986240618149427      2.721218805806027     18.941848442605700
Li     10.912791588660404      6.079191311489699     19.008614448825810
Li     13.208915469656940      7.263393349775868     19.753050017538115
Li     12.965577250492650      7.485183975554692     12.035523858144206
Li     17.357402255198281      9.607138096524245     13.947532522315003
Li     15.281878180944112     10.817751574455810     12.354274882546891
Li     13.146132078546529      2.700237423547381     13.950035888481722
Li     11.033186692809654      3.762774549676636     12.282514018180549
Li     15.171173373543441      7.803097963279429     13.413996763988083
Li      5.019139559389275      7.456216756185548     12.344713778685415
Li      8.558661534722875      9.561788162766412     13.905129251203144
Li      0.590755982217065      0.084648063721362     12.267857018105939
Li      4.778374552176073      2.541773621505983     16.156799706063186
Li      2.714671513982659      3.659676515845370     12.074678531742560
Li      6.918189448581026      6.257076289674755     13.885394563862450
Li      8.882414027382151      7.273096858328636     12.359160000209025
Li     10.971354805460182      8.575719677665569     14.111598339828184
Li     10.952744047594196     10.814597254086454     12.359514417709102
Li      8.837607591772851      2.694760047692374     13.875891085511173
Li      6.953548850325199      4.055073397721314     12.409710465437321
Li     10.919886886067067      5.965883035264721     13.853710199157243
Li      8.914016333350384      7.329438070845988     17.692374978954987
Li      4.792911781034324      7.279567608974606     19.701650490627870
Li      4.242940768363532      5.328742967871507     13.420587181381629
Li      9.562058290082426      9.342087548083329     16.311965054868569
Li     12.324838503036322      9.374382066831457     16.225929758111683
Li      2.574597963425538      1.281752387063787     16.016705310316755
Li      9.079797331866580      0.143714481537598     19.634248478675321
Li      9.593931450428714      2.170400630982172     16.208424673381963
Li     13.240064959314974      9.881770444380239     13.851346379433981
Li     12.320446008314464      2.088493504013722     16.278768136888640
Li     11.035737478787279      1.345993363730477     14.059626210602243
Li      6.882270220708028      1.426460358461803     12.048816456936180
Li     12.971678857018494      4.866549567061297     15.871518078694761
Li     13.798715154401528      5.391037434887600     13.422991659914908
Li     15.242267797947425      6.188549973753967     18.497270858764065
Li      4.938214956069914      2.596964009760235     13.799163476858153
P       6.840915979176242      6.202167613247774     11.284421092599677
P      10.999119054624448      1.373086473380803      7.921775785817297
P      13.204903680639143      4.820108265616965      7.879093258464599
P      10.900577770148452      8.449032540779237      8.054268000849788
P       6.834369876367829      1.293748360942199      7.687737703603533
P       8.893464910025092      4.888551684510174      8.005806765835359
P       4.748131704103264      4.994272533587440      7.949997334180773
P      11.049266915649874      3.695263936052222     14.852185634694949
P      13.087207742957762      7.373072643515415     14.837687338084725
P       4.805251725731208      4.904479729622057     18.492542189806766
P       0.651535102719223      0.215251732546387     14.847655038036406
P       4.716076423976379      0.185669227444924     14.933715758900606
P       9.031137050538788      0.134557604137177     14.804184866980444
P       6.848337848699940      8.407020861787187     18.451209732758791
P       4.770253146562013      7.331820061687385     14.902685981470132
P      10.913379642453076      1.311256241776668     18.269145148532978
P       2.777346232333905      3.701353992046983     14.807523222090982
P      13.149471281104965      4.971038263135584     18.549189437083083
P      13.106435040563444      9.949158251473344     11.330813771128531
P      15.233987287253164      6.155796353027302     11.469044605053842
P       8.950293662508191      7.349821385137056     14.948836018697884
P      15.178265999132046      8.616560217939689     18.745210536176398
P       6.818281258537320      3.758793951677417     14.932448841329629
P      11.094204179219581      8.498472477097812     18.331866963428407
S      15.264451783569493      8.482823420882424      8.057084563930488
S       6.833056813841655      8.513858441643173      8.197728808421477
S       2.595772465020525      1.320962819182038      8.029040406965537
S       2.779792108446877      1.487824356387107     18.511737803881196
S       6.991400815877062      1.306077764238842     18.498856911923859
S       8.932765221164534      4.942659481360297     18.168948499929634
S      10.975852158280981      6.127738921677733     11.387631814846129
S       8.964334691295514      2.534998486409033     11.403368521263411
S      17.260406269725550      9.729450910077404     11.423826838884027
S      13.096260594927140      2.479001780710272     11.473719581674210
S       8.912117318568969      9.783627375699824     11.479582682993346
S       4.716145416445204      2.393867672185475     11.414379721813082
